
     RDKit          2D

 90 99  0  0  0  0  0  0  0  0999 V2000
    5.2500   -1.2990    0.0000 C   0  0  0  0  0  0  0  0  0  0  0  0
    3.7500   -1.2990    0.0000 N   0  0  0  0  0  0  0  0  0  0  0  0
    3.0000    0.0000    0.0000 C   0  0  0  0  0  0  0  0  0  0  0  0
    3.7500    1.2990    0.0000 O   0  0  0  0  0  0  0  0  0  0  0  0
    1.5000    0.0000    0.0000 C   0  0  0  0  0  0  0  0  0  0  0  0
    0.7500   -1.2990    0.0000 N   0  0  0  0  0  0  0  0  0  0  0  0
   -0.7500   -1.2990    0.0000 N   0  0  0  0  0  0  0  0  0  0  0  0
   -1.5000    0.0000    0.0000 C   0  0  0  0  0  0  0  0  0  0  0  0
   -0.7500    1.2990    0.0000 C   0  0  0  0  0  0  0  0  0  0  0  0
    0.7500    1.2990    0.0000 C   0  0  0  0  0  0  0  0  0  0  0  0
    1.5000    2.5981    0.0000 N   0  0  0  0  0  0  0  0  0  0  0  0
    0.7500    3.8971    0.0000 C   0  0  0  0  0  0  0  0  0  0  0  0
    1.5000    5.1962    0.0000 C   0  0  0  0  0  0  0  0  0  0  0  0
    0.7500    6.4952    0.0000 C   0  0  0  0  0  0  0  0  0  0  0  0
   -0.7500    6.4952    0.0000 C   0  0  0  0  0  0  0  0  0  0  0  0
   -1.5000    5.1962    0.0000 C   0  0  0  0  0  0  0  0  0  0  0  0
   -0.7500    3.8971    0.0000 C   0  0  0  0  0  0  0  0  0  0  0  0
   -1.5000    7.7942    0.0000 C   0  0  0  0  0  0  0  0  0  0  0  0
   -3.0000    7.7942    0.0000 O   0  0  0  0  0  0  0  0  0  0  0  0
   -0.7500    9.0933    0.0000 N   0  0  0  0  0  0  0  0  0  0  0  0
   -1.3601   10.4636    0.0000 C   0  0  0  0  0  0  0  0  0  0  0  0
   -0.2454   11.4673    0.0000 C   0  0  0  0  0  0  0  0  0  0  0  0
    1.0537   10.7173    0.0000 C   0  0  0  0  0  0  0  0  0  0  0  0
    0.7418    9.2501    0.0000 C   0  0  0  0  0  0  0  0  0  0  0  0
   -3.0000    0.0000    0.0000 N   0  0  0  0  0  0  0  0  0  0  0  0
   -3.7500    1.2990    0.0000 C   0  0  0  0  0  0  0  0  0  0  0  0
   -3.0000    2.5981    0.0000 O   0  0  0  0  0  0  0  0  0  0  0  0
   -5.2500    1.2990    0.0000 C   0  0  0  0  0  0  0  0  0  0  0  0
   -6.5490    0.5490    0.0000 C   0  0  0  0  0  0  0  0  0  0  0  0
   -6.5490    2.0490    0.0000 C   0  0  0  0  0  0  0  0  0  0  0  0
   18.0490   -1.2990    0.0000 C   0  0  0  0  0  0  0  0  0  0  0  0
   16.5490   -1.2990    0.0000 N   0  0  0  0  0  0  0  0  0  0  0  0
   15.7990    0.0000    0.0000 C   0  0  0  0  0  0  0  0  0  0  0  0
   16.5490    1.2990    0.0000 O   0  0  0  0  0  0  0  0  0  0  0  0
   14.2990    0.0000    0.0000 C   0  0  0  0  0  0  0  0  0  0  0  0
   13.5490   -1.2990    0.0000 N   0  0  0  0  0  0  0  0  0  0  0  0
   12.0490   -1.2990    0.0000 N   0  0  0  0  0  0  0  0  0  0  0  0
   11.2990    0.0000    0.0000 C   0  0  0  0  0  0  0  0  0  0  0  0
   12.0490    1.2990    0.0000 C   0  0  0  0  0  0  0  0  0  0  0  0
   13.5490    1.2990    0.0000 C   0  0  0  0  0  0  0  0  0  0  0  0
   14.2990    2.5981    0.0000 N   0  0  0  0  0  0  0  0  0  0  0  0
   13.5490    3.8971    0.0000 C   0  0  0  0  0  0  0  0  0  0  0  0
   12.0490    3.8971    0.0000 C   0  0  0  0  0  0  0  0  0  0  0  0
   11.2990    5.1962    0.0000 C   0  0  0  0  0  0  0  0  0  0  0  0
   12.0490    6.4952    0.0000 C   0  0  0  0  0  0  0  0  0  0  0  0
   13.5490    6.4952    0.0000 C   0  0  0  0  0  0  0  0  0  0  0  0
   14.2990    5.1962    0.0000 C   0  0  0  0  0  0  0  0  0  0  0  0
   15.7990    5.1962    0.0000 O   0  0  0  0  0  0  0  0  0  0  0  0
   16.5490    3.8971    0.0000 C   0  0  0  0  0  0  0  0  0  0  0  0
   14.2990    7.7942    0.0000 C   0  0  0  0  0  0  0  0  0  0  0  0
   15.7908    7.9510    0.0000 N   0  0  0  0  0  0  0  0  0  0  0  0
   16.1027    9.4182    0.0000 N   0  0  0  0  0  0  0  0  0  0  0  0
   14.8037   10.1682    0.0000 C   0  0  0  0  0  0  0  0  0  0  0  0
   13.6889    9.1645    0.0000 N   0  0  0  0  0  0  0  0  0  0  0  0
   17.4730   10.0283    0.0000 C   0  0  0  0  0  0  0  0  0  0  0  0
    9.7990    0.0000    0.0000 N   0  0  0  0  0  0  0  0  0  0  0  0
    9.0490    1.2990    0.0000 C   0  0  0  0  0  0  0  0  0  0  0  0
    9.7990    2.5981    0.0000 O   0  0  0  0  0  0  0  0  0  0  0  0
    7.5490    1.2990    0.0000 C   0  0  0  0  0  0  0  0  0  0  0  0
    6.2500    0.5490    0.0000 C   0  0  0  0  0  0  0  0  0  0  0  0
    6.2500    2.0490    0.0000 C   0  0  0  0  0  0  0  0  0  0  0  0
    1.8478   12.4673    0.0000 C   0  0  0  0  0  0  0  0  0  0  0  0
    2.0046   13.9591    0.0000 N   0  0  0  0  0  0  0  0  0  0  0  0
    3.3037   14.7091    0.0000 C   0  0  0  0  0  0  0  0  0  0  0  0
    2.9918   16.1763    0.0000 N   0  0  0  0  0  0  0  0  0  0  0  0
    1.5000   16.3331    0.0000 C   0  0  0  0  0  0  0  0  0  0  0  0
    0.8899   14.9628    0.0000 N   0  0  0  0  0  0  0  0  0  0  0  0
    0.7500   17.6321    0.0000 C   0  0  0  0  0  0  0  0  0  0  0  0
    1.5000   18.9312    0.0000 C   0  0  0  0  0  0  0  0  0  0  0  0
    0.7500   20.2302    0.0000 C   0  0  0  0  0  0  0  0  0  0  0  0
   -0.7500   20.2302    0.0000 C   0  0  0  0  0  0  0  0  0  0  0  0
   -1.5000   18.9312    0.0000 C   0  0  0  0  0  0  0  0  0  0  0  0
   -0.7500   17.6321    0.0000 C   0  0  0  0  0  0  0  0  0  0  0  0
    1.5000   21.5292    0.0000 N   0  0  0  0  0  0  0  0  0  0  0  0
    3.0000   21.5292    0.0000 C   0  0  0  0  0  0  0  0  0  0  0  0
    3.7500   20.2302    0.0000 C   0  0  0  0  0  0  0  0  0  0  0  0
    5.2500   20.2302    0.0000 C   0  0  0  0  0  0  0  0  0  0  0  0
    6.0000   21.5292    0.0000 N   0  0  0  0  0  0  0  0  0  0  0  0
    5.2500   22.8283    0.0000 C   0  0  0  0  0  0  0  0  0  0  0  0
    3.7500   22.8283    0.0000 C   0  0  0  0  0  0  0  0  0  0  0  0
    3.0000   24.1273    0.0000 F   0  0  0  0  0  0  0  0  0  0  0  0
    6.0000   24.1273    0.0000 F   0  0  0  0  0  0  0  0  0  0  0  0
    6.0000   18.9312    0.0000 N   0  0  0  0  0  0  0  0  0  0  0  0
    7.5000   18.9312    0.0000 C   0  0  0  0  0  0  0  0  0  0  0  0
    8.2500   20.2302    0.0000 O   0  0  0  0  0  0  0  0  0  0  0  0
    8.2500   17.6321    0.0000 C   0  0  0  0  0  0  0  0  0  0  0  0
    9.5490   16.8821    0.0000 C   0  0  0  0  0  0  0  0  0  0  0  0
    8.2500   16.1321    0.0000 C   0  0  0  0  0  0  0  0  0  0  0  0
    3.0000   18.9312    0.0000 O   0  0  0  0  0  0  0  0  0  0  0  0
    3.7500   17.6321    0.0000 C   0  0  0  0  0  0  0  0  0  0  0  0
  1  2  1  0
  2  3  1  0
  3  4  2  0
  3  5  1  0
  5  6  2  0
  6  7  1  0
  7  8  2  0
  8  9  1  0
  9 10  2  0
 10 11  1  0
 11 12  1  0
 12 13  2  0
 13 14  1  0
 14 15  2  0
 15 16  1  0
 16 17  2  0
 15 18  1  0
 18 19  2  0
 18 20  1  0
 20 21  1  0
 21 22  1  0
 22 23  1  0
 23 24  1  0
  8 25  1  0
 25 26  1  0
 26 27  2  0
 26 28  1  0
 28 29  1  0
 29 30  1  0
 31 32  1  0
 32 33  1  0
 33 34  2  0
 33 35  1  0
 35 36  2  0
 36 37  1  0
 37 38  2  0
 38 39  1  0
 39 40  2  0
 40 41  1  0
 41 42  1  0
 42 43  2  0
 43 44  1  0
 44 45  2  0
 45 46  1  0
 46 47  2  0
 47 48  1  0
 48 49  1  0
 46 50  1  0
 50 51  2  0
 51 52  1  0
 52 53  1  0
 53 54  2  0
 52 55  1  0
 38 56  1  0
 56 57  1  0
 57 58  2  0
 57 59  1  0
 59 60  1  0
 60 61  1  0
 62 63  1  0
 63 64  1  0
 64 65  2  0
 65 66  1  0
 66 67  2  0
 66 68  1  0
 68 69  2  0
 69 70  1  0
 70 71  2  0
 71 72  1  0
 72 73  2  0
 70 74  1  0
 74 75  1  0
 75 76  2  0
 76 77  1  0
 77 78  2  0
 78 79  1  0
 79 80  2  0
 80 81  1  0
 79 82  1  0
 77 83  1  0
 83 84  1  0
 84 85  2  0
 84 86  1  0
 86 87  1  0
 87 88  1  0
 69 89  1  0
 89 90  1  0
 10  5  1  0
 40 35  1  0
 67 63  1  0
 17 12  1  0
 47 42  1  0
 73 68  1  0
 24 20  1  0
 54 50  1  0
 80 75  1  0
 30 28  1  0
 61 59  1  0
 88 86  1  0
M  END
