REMARK  Name = 
REMARK  6 active torsions:
REMARK  status: ('A' for Active; 'I' for Inactive)
REMARK    1  A    between atoms: _2  and  _3
REMARK    2  A    between atoms: _3  and  _4
REMARK    3  A    between atoms: _4  and  _7
REMARK    4  A    between atoms: _7  and  _8
REMARK    5  A    between atoms: _10  and  _12
REMARK    6  A    between atoms: _12  and  _14
ROOT
ATOM     14  C9  UNL     1       0.706   2.681   0.000  0.00  0.00     0.000 A
ATOM     15  N3  UNL     1      -0.409   3.684   0.000  0.00  0.00     0.000 NA
ATOM     16  C10 UNL     1      -1.835   3.221   0.000  0.00  0.00     0.000 A
ATOM     17  N4  UNL     1      -2.147   1.754   0.000  0.00  0.00     0.000 NA
ATOM     18  C11 UNL     1      -1.032   0.750   0.000  0.00  0.00     0.000 A
ATOM     19  C12 UNL     1       0.394   1.214   0.000  0.00  0.00     0.000 A
ATOM     20  C13 UNL     1       1.276   0.000   0.000  0.00  0.00     0.000 A
ATOM     21  C14 UNL     1       0.394  -1.214   0.000  0.00  0.00     0.000 A
ATOM     22  N5  UNL     1      -1.032  -0.750   0.000  0.00  0.00     0.000 N
ENDROOT
BRANCH 14 12
ATOM     12  N2  UNL     1       2.133   3.144   0.000  0.00  0.00     0.000 N
ATOM     13  C8  UNL     1       2.445   4.612   0.000  0.00  0.00     0.000 C
BRANCH 12 10
ATOM      8  C4  UNL     1       4.824   0.721   0.000  0.00  0.00     0.000 C
ATOM      9  C5  UNL     1       3.326   0.643   0.000  0.00  0.00     0.000 C
ATOM     10  C6  UNL     1       3.248   2.141   0.000  0.00  0.00     0.000 C
ATOM     11  C7  UNL     1       4.745   2.219   0.000  0.00  0.00     0.000 C
BRANCH 8 7
ATOM      7  N1  UNL     1       5.939  -0.283   0.000  0.00  0.00     0.000 N
BRANCH 7 4
ATOM      4  S1  UNL     1       5.627  -1.750   0.000  0.00  0.00     0.000 S
ATOM      5  O1  UNL     1       4.160  -1.438   0.000  0.00  0.00     0.000 OA
ATOM      6  O2  UNL     1       7.094  -2.062   0.000  0.00  0.00     0.000 OA
BRANCH 4 3
ATOM      3  C3  UNL     1       5.315  -3.217   0.000  0.00  0.00     0.000 C
BRANCH 3 2
ATOM      1  C1  UNL     1       3.576  -5.148   0.000  0.00  0.00     0.000 C
ATOM      2  C2  UNL     1       3.888  -3.680   0.000  0.00  0.00     0.000 C
ENDBRANCH 3 2
ENDBRANCH 4 3
ENDBRANCH 7 4
ENDBRANCH 8 7
ENDBRANCH 12 10
ENDBRANCH 14 12
TORSDOF 6