REMARK  Name = 
REMARK  5 active torsions:
REMARK  status: ('A' for Active; 'I' for Inactive)
REMARK    1  A    between atoms: _4  and  _3
REMARK    2  A    between atoms: _8  and  _9
REMARK    3  A    between atoms: _14  and  _15
REMARK    4  A    between atoms: _15  and  _16
REMARK    5  A    between atoms: _26  and  _25
ROOT
ATOM      9  C5  UNL     1       0.000  -3.607   0.000  0.00  0.00     0.000 A
ATOM     10  N4  UNL     1       1.214  -2.726   0.000  0.00  0.00     0.000 NA
ATOM     11  C6  UNL     1       0.750  -1.299   0.000  0.00  0.00     0.000 A
ATOM     12  C7  UNL     1       1.500   0.000   0.000  0.00  0.00     0.000 A
ATOM     13  C8  UNL     1       0.750   1.299   0.000  0.00  0.00     0.000 A
ATOM     14  C9  UNL     1      -0.750   1.299   0.000  0.00  0.00     0.000 A
ATOM     22  C15 UNL     1      -1.500   0.000   0.000  0.00  0.00     0.000 A
ATOM     23  C16 UNL     1      -0.750  -1.299   0.000  0.00  0.00     0.000 A
ATOM     24  N6  UNL     1      -1.214  -2.726   0.000  0.00  0.00     0.000 N
ENDROOT
BRANCH 9 8
ATOM      4  C2  UNL     1       1.214  -5.989   0.000  0.00  0.00     0.000 A
ATOM      5  C3  UNL     1       0.750  -7.416   0.000  0.00  0.00     0.000 A
ATOM      6  N2  UNL     1      -0.750  -7.416   0.000  0.00  0.00     0.000 N
ATOM      7  N3  UNL     1      -1.214  -5.989   0.000  0.00  0.00     0.000 NA
ATOM      8  C4  UNL     1       0.000  -5.107   0.000  0.00  0.00     0.000 A
BRANCH 4 3
ATOM      1  O1  UNL     1       3.443  -7.996   0.000  0.00  0.00     0.000 OA
ATOM      2  C1  UNL     1       3.755  -6.529   0.000  0.00  0.00     0.000 C
ATOM      3  N1  UNL     1       2.640  -5.526   0.000  0.00  0.00     0.000 N
ATOM     25  N7  UNL     1       5.181  -6.066   0.000  0.00  0.00     0.000 N
BRANCH 25 26
ATOM     26  C17 UNL     1       6.296  -7.069   0.000  0.00  0.00     0.000 C
ATOM     27  C18 UNL     1       7.763  -7.381   0.000  0.00  0.00     0.000 C
ATOM     28  C19 UNL     1       6.760  -8.496   0.000  0.00  0.00     0.000 C
ENDBRANCH 25 26
ENDBRANCH 4 3
ENDBRANCH 9 8
BRANCH 14 15
ATOM     15  C10 UNL     1      -1.500   2.598   0.000  0.00  0.00     0.000 C
BRANCH 15 16
ATOM     16  N5  UNL     1      -0.750   3.897   0.000  0.00  0.00     0.000 N
ATOM     17  C11 UNL     1       0.750   3.897   0.000  0.00  0.00     0.000 C
ATOM     18  C12 UNL     1       1.500   5.196   0.000  0.00  0.00     0.000 C
ATOM     19  O2  UNL     1       0.750   6.495   0.000  0.00  0.00     0.000 OA
ATOM     20  C13 UNL     1      -0.750   6.495   0.000  0.00  0.00     0.000 C
ATOM     21  C14 UNL     1      -1.500   5.196   0.000  0.00  0.00     0.000 C
ENDBRANCH 15 16
ENDBRANCH 14 15
TORSDOF 5