REMARK  Name = 
REMARK  5 active torsions:
REMARK  status: ('A' for Active; 'I' for Inactive)
REMARK    1  A    between atoms: _2  and  _3
REMARK    2  A    between atoms: _3  and  _6
REMARK    3  A    between atoms: _8  and  _9
REMARK    4  A    between atoms: _8  and  _12
REMARK    5  A    between atoms: _14  and  _15
ROOT
ATOM     15  C9  UNL     1      -2.147   1.754   0.000  0.00  0.00     0.000 A
ATOM     16  N4  UNL     1      -1.835   3.221   0.000  0.00  0.00     0.000 NA
ATOM     17  C10 UNL     1      -0.409   3.684   0.000  0.00  0.00     0.000 A
ATOM     18  N5  UNL     1       0.706   2.681   0.000  0.00  0.00     0.000 NA
ATOM     19  C11 UNL     1       0.394   1.214   0.000  0.00  0.00     0.000 A
ATOM     20  N6  UNL     1       1.276   0.000   0.000  0.00  0.00     0.000 N
ATOM     21  C12 UNL     1       0.394  -1.214   0.000  0.00  0.00     0.000 A
ATOM     22  C13 UNL     1      -1.032  -0.750   0.000  0.00  0.00     0.000 A
ATOM     23  C14 UNL     1      -1.032   0.750   0.000  0.00  0.00     0.000 A
ENDROOT
BRANCH 15 14
ATOM     12  N3  UNL     1      -6.001   1.290   0.000  0.00  0.00     0.000 N
ATOM     13  C7  UNL     1      -4.787   2.172   0.000  0.00  0.00     0.000 A
ATOM     14  C8  UNL     1      -3.574   1.290   0.000  0.00  0.00     0.000 A
ATOM     24  C15 UNL     1      -4.037  -0.136   0.000  0.00  0.00     0.000 A
ATOM     25  N7  UNL     1      -5.537  -0.136   0.000  0.00  0.00     0.000 NA
BRANCH 12 8
ATOM      6  N1  UNL     1      -9.317   0.791   0.000  0.00  0.00     0.000 N
ATOM      7  C3  UNL     1      -7.891   0.327   0.000  0.00  0.00     0.000 C
ATOM      8  C4  UNL     1      -7.427   1.754   0.000  0.00  0.00     0.000 C
ATOM     26  C16 UNL     1      -8.854   2.217   0.000  0.00  0.00     0.000 C
BRANCH 6 3
ATOM      3  S1  UNL     1     -10.654   0.110   0.000  0.00  0.00     0.000 S
ATOM      4  O1  UNL     1      -9.973  -1.227   0.000  0.00  0.00     0.000 OA
ATOM      5  O2  UNL     1     -11.335   1.446   0.000  0.00  0.00     0.000 OA
BRANCH 3 2
ATOM      1  C1  UNL     1     -12.069  -2.069   0.000  0.00  0.00     0.000 C
ATOM      2  C2  UNL     1     -11.990  -0.571   0.000  0.00  0.00     0.000 C
ENDBRANCH 3 2
ENDBRANCH 6 3
BRANCH 8 9
ATOM      9  C5  UNL     1      -6.964   3.180   0.000  0.00  0.00     0.000 C
ATOM     10  C6  UNL     1      -7.967   4.295   0.000  0.00  0.00     0.000 C
ATOM     11  N2  UNL     1      -8.971   5.410   0.000  0.00  0.00     0.000 N
ENDBRANCH 8 9
ENDBRANCH 12 8
ENDBRANCH 15 14
TORSDOF 5