REMARK  Name = 
REMARK  5 active torsions:
REMARK  status: ('A' for Active; 'I' for Inactive)
REMARK    1  A    between atoms: _4  and  _5
REMARK    2  A    between atoms: _8  and  _9
REMARK    3  A    between atoms: _9  and  _10
REMARK    4  A    between atoms: _12  and  _13
REMARK    5  A    between atoms: _22  and  _23
ROOT
ATOM     13  C9  UNL     1      -0.402   7.763   0.000  0.00  0.00     0.000 C
ATOM     14  C10 UNL     1       0.811   8.645   0.000  0.00  0.00     0.000 C
ATOM     15  O1  UNL     1       0.655  10.136   0.000  0.00  0.00     0.000 OA
ATOM     16  C11 UNL     1      -0.716  10.746   0.000  0.00  0.00     0.000 C
ATOM     17  C12 UNL     1      -1.929   9.865   0.000  0.00  0.00     0.000 C
ATOM     18  C13 UNL     1      -1.772   8.373   0.000  0.00  0.00     0.000 C
ATOM     19  C14 UNL     1      -2.986   7.491   0.000  0.00  0.00     0.000 C
ATOM     20  N5  UNL     1      -4.199   6.610   0.000  0.00  0.00     0.000 N
ENDROOT
BRANCH 13 12
ATOM     10  C8  UNL     1      -0.750   3.897   0.000  0.00  0.00     0.000 A
ATOM     11  N3  UNL     1      -1.360   5.267   0.000  0.00  0.00     0.000 NA
ATOM     12  N4  UNL     1      -0.245   6.271   0.000  0.00  0.00     0.000 N
ATOM     21  C15 UNL     1       1.054   5.521   0.000  0.00  0.00     0.000 A
ATOM     22  C16 UNL     1       0.742   4.054   0.000  0.00  0.00     0.000 A
BRANCH 22 23
ATOM     23  C17 UNL     1       1.746   2.939   0.000  0.00  0.00     0.000 C
ATOM     24  N6  UNL     1       1.282   1.513   0.000  0.00  0.00     0.000 N
ATOM     25  O2  UNL     1       3.213   3.251   0.000  0.00  0.00     0.000 OA
ENDBRANCH 22 23
BRANCH 10 9
ATOM      9  N2  UNL     1      -1.500   2.598   0.000  0.00  0.00     0.000 N
BRANCH 9 8
ATOM      5  C4  UNL     1      -6.000   2.598   0.000  0.00  0.00     0.000 A
ATOM      6  C5  UNL     1      -5.250   3.897   0.000  0.00  0.00     0.000 A
ATOM      7  C6  UNL     1      -3.750   3.897   0.000  0.00  0.00     0.000 A
ATOM      8  C7  UNL     1      -3.000   2.598   0.000  0.00  0.00     0.000 A
ATOM     26  C18 UNL     1      -3.750   1.299   0.000  0.00  0.00     0.000 A
ATOM     27  C19 UNL     1      -5.250   1.299   0.000  0.00  0.00     0.000 A
BRANCH 5 4
ATOM      1  C1  UNL     1     -11.022   4.230   0.000  0.00  0.00     0.000 C
ATOM      2  N1  UNL     1      -9.808   3.348   0.000  0.00  0.00     0.000 N
ATOM      3  C2  UNL     1      -8.382   3.812   0.000  0.00  0.00     0.000 A
ATOM      4  C3  UNL     1      -7.500   2.598   0.000  0.00  0.00     0.000 A
ATOM     28  C20 UNL     1      -8.382   1.385   0.000  0.00  0.00     0.000 A
ATOM     29  N7  UNL     1      -9.808   1.848   0.000  0.00  0.00     0.000 NA
ENDBRANCH 5 4
ENDBRANCH 9 8
ENDBRANCH 10 9
ENDBRANCH 13 12
TORSDOF 5