MODEL 1
REMARK VINA RESULT:    -9.564      0.000      0.000
REMARK INTER + INTRA:         -11.922
REMARK INTER:                 -10.909
REMARK INTRA:                  -1.014
REMARK UNBOUND:                -0.681
REMARK  Name = 
REMARK  3 active torsions:
REMARK  status: ('A' for Active; 'I' for Inactive)
REMARK    1  A    between atoms: _10  and  _11
REMARK    2  A    between atoms: _11  and  _12
REMARK    3  A    between atoms: _20  and  _21
ROOT
ATOM      1  C1  UNL     1      -8.937  -9.956 -16.028  0.00  0.00     0.000 C
ATOM      2  C2  UNL     1      -9.866 -10.942 -16.672  0.00  0.00     0.000 C
ATOM      3  C3  UNL     1     -10.189 -10.380 -15.319  0.00  0.00     0.000 C
ATOM      4  C4  UNL     1      -9.260  -9.394 -14.676  0.00  0.00     0.000 C
ATOM      5  C5  UNL     1      -7.941 -10.186 -17.581  0.00  0.00     0.000 C
ATOM      6  C6  UNL     1      -8.291 -11.080 -18.734  0.00  0.00     0.000 C
ATOM      7  C7  UNL     1      -9.543 -11.504 -18.024  0.00  0.00     0.000 C
ATOM      8  C8  UNL     1      -7.362 -10.094 -18.090  0.00  0.00     0.000 C
ATOM      9  C9  UNL     1      -7.685  -9.531 -16.737  0.00  0.00     0.000 C
ATOM     10  C10 UNL     1      -8.008  -8.969 -15.385  0.00  0.00     0.000 C
ATOM     24  F1  UNL     1      -7.968 -11.642 -20.086  0.00  0.00     0.000 F
ENDROOT
BRANCH 10 11
ATOM     11  N1  UNL     1      -7.079  -7.983 -14.741  0.00  0.00     0.000 N
BRANCH 11 12
ATOM     12  C11 UNL     1      -7.035  -6.565 -15.230  0.00  0.00     0.000 A
ATOM     13  C12 UNL     1      -6.193  -6.208 -16.419  0.00  0.00     0.000 A
ATOM     14  C13 UNL     1      -5.306  -7.032 -17.306  0.00  0.00     0.000 A
ATOM     15  C14 UNL     1      -4.715  -6.124 -18.342  0.00  0.00     0.000 A
ATOM     16  N2  UNL     1      -5.234  -4.740 -18.097  0.00  0.00     0.000 N
ATOM     17  C15 UNL     1      -6.148  -4.791 -16.908  0.00  0.00     0.000 A
ATOM     18  N3  UNL     1      -6.946  -3.731 -16.208  0.00  0.00     0.000 NA
ATOM     19  C16 UNL     1      -7.788  -4.088 -15.019  0.00  0.00     0.000 A
ATOM     20  C17 UNL     1      -7.832  -5.505 -14.530  0.00  0.00     0.000 A
BRANCH 20 21
ATOM     21  C18 UNL     1      -8.674  -5.862 -13.341  0.00  0.00     0.000 C
ATOM     22  O1  UNL     1     -10.138  -6.137 -13.514  0.00  0.00     0.000 OA
ATOM     23  N4  UNL     1      -8.051  -5.944 -11.979  0.00  0.00     0.000 N
ENDBRANCH 20 21
ENDBRANCH 11 12
ENDBRANCH 10 11
TORSDOF 3
ENDMDL
