MODEL 1
REMARK VINA RESULT:    -7.541      0.000      0.000
REMARK INTER + INTRA:         -10.610
REMARK INTER:                 -10.399
REMARK INTRA:                  -0.211
REMARK UNBOUND:                -0.424
REMARK  Name = 
REMARK  6 active torsions:
REMARK  status: ('A' for Active; 'I' for Inactive)
REMARK    1  A    between atoms: _4  and  _10
REMARK    2  A    between atoms: _5  and  _7
REMARK    3  A    between atoms: _10  and  _11
REMARK    4  A    between atoms: _13  and  _20
REMARK    5  A    between atoms: _16  and  _17
REMARK    6  A    between atoms: _20  and  _21
ROOT
ATOM     21  C14 UNL     1      -8.351 -11.156 -18.380  0.00  0.00     0.000 A
ATOM     22  N6  UNL     1      -7.160 -10.255 -18.518  0.00  0.00     0.000 NA
ATOM     23  C15 UNL     1      -6.309 -10.321 -19.752  0.00  0.00     0.000 A
ATOM     24  C16 UNL     1      -6.650 -11.287 -20.848  0.00  0.00     0.000 A
ATOM     25  C17 UNL     1      -7.842 -12.188 -20.709  0.00  0.00     0.000 A
ATOM     26  C18 UNL     1      -8.692 -12.122 -19.476  0.00  0.00     0.000 A
ATOM     27  F1  UNL     1      -5.800 -11.353 -22.082  0.00  0.00     0.000 F
ENDROOT
BRANCH 21 20
ATOM     20  N5  UNL     1      -9.201 -11.090 -17.146  0.00  0.00     0.000 N
BRANCH 20 13
ATOM     11  C8  UNL     1      -8.278  -7.533 -15.648  0.00  0.00     0.000 A
ATOM     12  C9  UNL     1      -8.462  -8.654 -16.628  0.00  0.00     0.000 A
ATOM     13  C10 UNL     1      -9.017  -9.969 -16.167  0.00  0.00     0.000 A
ATOM     14  N3  UNL     1      -9.386 -10.164 -14.726  0.00  0.00     0.000 NA
ATOM     15  C11 UNL     1      -9.201  -9.043 -13.746  0.00  0.00     0.000 A
ATOM     16  C12 UNL     1      -8.647  -7.727 -14.208  0.00  0.00     0.000 A
BRANCH 16 17
ATOM     17  C13 UNL     1      -8.462  -6.607 -13.228  0.00  0.00     0.000 C
ATOM     18  O2  UNL     1      -7.091  -6.060 -12.964  0.00  0.00     0.000 OA
ATOM     19  N4  UNL     1      -9.649  -6.032 -12.513  0.00  0.00     0.000 N
ENDBRANCH 16 17
BRANCH 11 10
ATOM     10  N2  UNL     1      -7.724  -6.218 -16.110  0.00  0.00     0.000 N
BRANCH 10 4
ATOM      1  C1  UNL     1      -4.644  -6.099 -19.388  0.00  0.00     0.000 A
ATOM      2  C2  UNL     1      -6.036  -6.573 -19.684  0.00  0.00     0.000 A
ATOM      3  C3  UNL     1      -7.062  -6.613 -18.591  0.00  0.00     0.000 A
ATOM      4  C4  UNL     1      -6.697  -6.178 -17.202  0.00  0.00     0.000 A
ATOM      5  C5  UNL     1      -5.305  -5.704 -16.907  0.00  0.00     0.000 A
ATOM      6  C6  UNL     1      -4.278  -5.665 -18.000  0.00  0.00     0.000 A
BRANCH 5 7
ATOM      7  C7  UNL     1      -4.939  -5.269 -15.519  0.00  0.00     0.000 C
ATOM      8  O1  UNL     1      -4.217  -6.213 -14.603  0.00  0.00     0.000 OA
ATOM      9  N1  UNL     1      -5.296  -3.891 -15.046  0.00  0.00     0.000 N
ENDBRANCH 5 7
ENDBRANCH 10 4
ENDBRANCH 11 10
ENDBRANCH 20 13
ENDBRANCH 21 20
TORSDOF 6
ENDMDL
