MODEL 1
REMARK VINA RESULT:   -10.739      0.000      0.000
REMARK INTER + INTRA:           8.405
REMARK INTER:                  -7.478
REMARK INTRA:                  15.883
REMARK UNBOUND:                20.400
REMARK  Name = 
REMARK  4 active torsions:
REMARK  status: ('A' for Active; 'I' for Inactive)
REMARK    1  A    between atoms: _6  and  _4
REMARK    2  A    between atoms: _12  and  _16
REMARK    3  A    between atoms: _16  and  _17
REMARK    4  A    between atoms: _25  and  _26
ROOT
ATOM      6  C4  UNL     1      -7.777  -6.158 -15.475  0.00  0.00     0.000 C
ATOM      7  C5  UNL     1      -8.659  -6.469 -14.303  0.00  0.00     0.000 C
ATOM      8  C6  UNL     1      -9.942  -5.718 -14.109  0.00  0.00     0.000 C
ATOM      9  C7  UNL     1     -10.344  -4.655 -15.088  0.00  0.00     0.000 C
ATOM     10  C8  UNL     1      -9.462  -4.343 -16.261  0.00  0.00     0.000 C
ATOM     11  C9  UNL     1      -8.179  -5.095 -16.454  0.00  0.00     0.000 C
ATOM     12  C10 UNL     1      -7.980  -6.739 -14.566  0.00  0.00     0.000 C
ATOM     13  C11 UNL     1      -8.257  -7.533 -13.324  0.00  0.00     0.000 C
ATOM     14  C12 UNL     1      -9.541  -6.781 -13.130  0.00  0.00     0.000 C
ATOM     15  C13 UNL     1      -7.375  -7.221 -14.496  0.00  0.00     0.000 C
ENDROOT
BRANCH 6 4
ATOM      1  C1  UNL     1      -3.789  -6.836 -15.112  0.00  0.00     0.000 C
ATOM      2  N1  UNL     1      -5.213  -6.364 -15.108  0.00  0.00     0.000 N
ATOM      3  C2  UNL     1      -5.217  -5.068 -14.353  0.00  0.00     0.000 C
ATOM      4  C3  UNL     1      -6.493  -6.909 -15.669  0.00  0.00     0.000 C
ATOM      5  O1  UNL     1      -6.131  -8.196 -16.350  0.00  0.00     0.000 OA
ENDBRANCH 6 4
BRANCH 12 16
ATOM     16  N2  UNL     1      -6.729  -6.993 -15.355  0.00  0.00     0.000 N
BRANCH 16 17
ATOM     17  C14 UNL     1      -6.814  -7.262 -16.828  0.00  0.00     0.000 A
ATOM     18  C15 UNL     1      -6.136  -6.340 -17.799  0.00  0.00     0.000 A
ATOM     19  C16 UNL     1      -5.320  -5.097 -17.600  0.00  0.00     0.000 A
ATOM     20  C17 UNL     1      -4.900  -4.598 -18.950  0.00  0.00     0.000 A
ATOM     21  N3  UNL     1      -5.457  -5.532 -19.984  0.00  0.00     0.000 N
ATOM     22  C18 UNL     1      -6.221  -6.609 -19.272  0.00  0.00     0.000 A
ATOM     23  N4  UNL     1      -6.982  -7.799 -19.775  0.00  0.00     0.000 NA
ATOM     24  C19 UNL     1      -7.660  -8.721 -18.804  0.00  0.00     0.000 A
ATOM     25  C20 UNL     1      -7.575  -8.452 -17.331  0.00  0.00     0.000 A
BRANCH 25 26
ATOM     26  C21 UNL     1      -8.253  -9.374 -16.360  0.00  0.00     0.000 C
ATOM     27  O2  UNL     1      -7.761 -10.340 -15.324  0.00  0.00     0.000 OA
ATOM     28  N5  UNL     1      -9.750  -9.441 -16.311  0.00  0.00     0.000 N
ENDBRANCH 25 26
ENDBRANCH 16 17
ENDBRANCH 12 16
TORSDOF 4
ENDMDL
