REMARK  Name = 
REMARK  8 active torsions:
REMARK  status: ('A' for Active; 'I' for Inactive)
REMARK    1  A    between atoms: _2  and  _5
REMARK    2  A    between atoms: _8  and  _6
REMARK    3  A    between atoms: _11  and  _12
REMARK    4  A    between atoms: _15  and  _13
REMARK    5  A    between atoms: _19  and  _20
REMARK    6  A    between atoms: _20  and  _21
REMARK    7  A    between atoms: _25  and  _26
REMARK    8  A    between atoms: _32  and  _33
ROOT
ATOM      8  C3  UNL     1       1.500   0.000   0.000  0.00  0.00     0.000 A
ATOM      9  N2  UNL     1       0.750  -1.299   0.000  0.00  0.00     0.000 NA
ATOM     10  N3  UNL     1      -0.750  -1.299   0.000  0.00  0.00     0.000 NA
ATOM     11  C4  UNL     1      -1.500   0.000   0.000  0.00  0.00     0.000 A
ATOM     18  C9  UNL     1      -0.750   1.299   0.000  0.00  0.00     0.000 A
ATOM     19  C10 UNL     1       0.750   1.299   0.000  0.00  0.00     0.000 A
ENDROOT
BRANCH 8 6
ATOM      5  N1  UNL     1       3.750  -1.299   0.000  0.00  0.00     0.000 N
ATOM      6  C2  UNL     1       3.000   0.000   0.000  0.00  0.00     0.000 C
ATOM      7  O1  UNL     1       3.750   1.299   0.000  0.00  0.00     0.000 OA
BRANCH 5 2
ATOM      1  H1  UNL     1       5.250  -2.799   0.000  0.00  0.00     0.000 H
ATOM      2  C1  UNL     1       5.250  -1.299   0.000  0.00  0.00     0.000 C
ATOM      3  H2  UNL     1       5.250   0.201   0.000  0.00  0.00     0.000 H
ATOM      4  H3  UNL     1       6.750  -1.299   0.000  0.00  0.00     0.000 H
ENDBRANCH 5 2
ENDBRANCH 8 6
BRANCH 11 12
ATOM     12  N4  UNL     1      -3.000   0.000   0.000  0.00  0.00     0.000 N
ATOM     13  C5  UNL     1      -3.750   1.299   0.000  0.00  0.00     0.000 C
ATOM     14  O2  UNL     1      -3.000   2.598   0.000  0.00  0.00     0.000 OA
BRANCH 13 15
ATOM     15  C6  UNL     1      -5.250   1.299   0.000  0.00  0.00     0.000 C
ATOM     16  C7  UNL     1      -6.549   0.549   0.000  0.00  0.00     0.000 C
ATOM     17  C8  UNL     1      -6.549   2.049   0.000  0.00  0.00     0.000 C
ENDBRANCH 13 15
ENDBRANCH 11 12
BRANCH 19 20
ATOM     20  N5  UNL     1       1.500   2.598   0.000  0.00  0.00     0.000 N
BRANCH 20 21
ATOM     21  C11 UNL     1       0.750   3.897   0.000  0.00  0.00     0.000 A
ATOM     22  C12 UNL     1      -0.750   3.897   0.000  0.00  0.00     0.000 A
ATOM     23  C13 UNL     1      -1.500   5.196   0.000  0.00  0.00     0.000 A
ATOM     24  C14 UNL     1      -0.750   6.495   0.000  0.00  0.00     0.000 A
ATOM     25  C15 UNL     1       0.750   6.495   0.000  0.00  0.00     0.000 A
ATOM     32  C19 UNL     1       1.500   5.196   0.000  0.00  0.00     0.000 A
BRANCH 25 26
ATOM     26  C16 UNL     1       1.500   7.794   0.000  0.00  0.00     0.000 A
ATOM     27  N6  UNL     1       2.992   7.951   0.000  0.00  0.00     0.000 NA
ATOM     28  C17 UNL     1       3.304   9.418   0.000  0.00  0.00     0.000 A
ATOM     29  N7  UNL     1       2.005  10.168   0.000  0.00  0.00     0.000 N
ATOM     30  C18 UNL     1       1.848  11.660   0.000  0.00  0.00     0.000 C
ATOM     31  N8  UNL     1       0.890   9.165   0.000  0.00  0.00     0.000 NA
ENDBRANCH 25 26
BRANCH 32 33
ATOM     33  O3  UNL     1       3.000   5.196   0.000  0.00  0.00     0.000 OA
ATOM     34  C20 UNL     1       3.750   3.897   0.000  0.00  0.00     0.000 C
ENDBRANCH 32 33
ENDBRANCH 20 21
ENDBRANCH 19 20
TORSDOF 8