
     RDKit          2D

 29 33  0  0  0  0  0  0  0  0999 V2000
   -6.6388   -1.0012    0.0000 C   0  0  0  0  0  0  0  0  0  0  0  0
   -5.8888    0.2979    0.0000 C   0  0  0  0  0  0  0  0  0  0  0  0
   -4.3888    0.2979    0.0000 C   0  0  0  0  0  0  0  0  0  0  0  0
   -3.6388   -1.0012    0.0000 C   0  0  0  0  0  0  0  0  0  0  0  0
   -4.3888   -2.3002    0.0000 C   0  0  0  0  0  0  0  0  0  0  0  0
   -5.8888   -2.3002    0.0000 C   0  0  0  0  0  0  0  0  0  0  0  0
   -6.6388   -3.5992    0.0000 C   0  0  0  0  0  0  0  0  0  0  0  0
   -8.1388   -3.5992    0.0000 N   0  0  0  0  0  0  0  0  0  0  0  0
   -8.8888   -4.8983    0.0000 C   0  0  0  0  0  0  0  0  0  0  0  0
  -10.3888   -4.8983    0.0000 C   0  0  0  0  0  0  0  0  0  0  0  0
  -11.1388   -3.5992    0.0000 C   0  0  0  0  0  0  0  0  0  0  0  0
  -12.6388   -3.5992    0.0000 C   0  0  0  0  0  0  0  0  0  0  0  0
  -13.3888   -4.8983    0.0000 C   0  0  0  0  0  0  0  0  0  0  0  0
  -12.6388   -6.1973    0.0000 C   0  0  0  0  0  0  0  0  0  0  0  0
  -11.1388   -6.1973    0.0000 C   0  0  0  0  0  0  0  0  0  0  0  0
  -14.8888   -4.8983    0.0000 C   0  0  0  0  0  0  0  0  0  0  0  0
  -16.3888   -4.8983    0.0000 N   0  0  0  0  0  0  0  0  0  0  0  0
   -3.6388    1.5969    0.0000 C   0  0  0  0  0  0  0  0  0  0  0  0
   -2.1470    1.7537    0.0000 C   0  0  0  0  0  0  0  0  0  0  0  0
   -1.0323    0.7500    0.0000 C   0  0  0  0  0  0  0  0  0  0  0  0
    0.3943    1.2135    0.0000 C   0  0  0  0  0  0  0  0  0  0  0  0
    1.2760    0.0000    0.0000 N   0  0  0  0  0  0  0  0  0  0  0  0
    0.3943   -1.2135    0.0000 C   0  0  0  0  0  0  0  0  0  0  0  0
   -1.0323   -0.7500    0.0000 C   0  0  0  0  0  0  0  0  0  0  0  0
    0.7062    2.6807    0.0000 N   0  0  0  0  0  0  0  0  0  0  0  0
   -0.4086    3.6844    0.0000 C   0  0  0  0  0  0  0  0  0  0  0  0
   -1.8351    3.2209    0.0000 N   0  0  0  0  0  0  0  0  0  0  0  0
   -3.1342    3.9709    0.0000 N   0  0  0  0  0  0  0  0  0  0  0  0
   -4.2489    2.9672    0.0000 N   0  0  0  0  0  0  0  0  0  0  0  0
  1  2  1  0
  2  3  1  0
  3  4  1  0
  4  5  1  0
  5  6  1  0
  6  7  1  0
  7  8  1  0
  8  9  1  0
  9 10  1  0
 10 11  2  0
 11 12  1  0
 12 13  2  0
 13 14  1  0
 14 15  2  0
 13 16  1  0
 16 17  3  0
  3 18  1  0
 18 19  2  0
 19 20  1  0
 20 21  2  0
 21 22  1  0
 22 23  1  0
 23 24  2  0
 21 25  1  0
 25 26  2  0
 26 27  1  0
 27 28  1  0
 28 29  2  0
  6  1  1  0
 15 10  1  0
 29 18  1  0
 27 19  1  0
 24 20  1  0
M  END
