REMARK  Name = 
REMARK  6 active torsions:
REMARK  status: ('A' for Active; 'I' for Inactive)
REMARK    1  A    between atoms: _4  and  _10
REMARK    2  A    between atoms: _5  and  _7
REMARK    3  A    between atoms: _10  and  _11
REMARK    4  A    between atoms: _13  and  _20
REMARK    5  A    between atoms: _16  and  _17
REMARK    6  A    between atoms: _20  and  _21
ROOT
ATOM     21  C14 UNL     1      -8.250  -1.299   0.000  0.00  0.00     0.000 A
ATOM     22  N6  UNL     1      -7.500  -0.000   0.000  0.00  0.00     0.000 NA
ATOM     23  C15 UNL     1      -8.250   1.299   0.000  0.00  0.00     0.000 A
ATOM     24  C16 UNL     1      -9.750   1.299   0.000  0.00  0.00     0.000 A
ATOM     25  C17 UNL     1     -10.500  -0.000   0.000  0.00  0.00     0.000 A
ATOM     26  C18 UNL     1      -9.750  -1.299   0.000  0.00  0.00     0.000 A
ATOM     27  F1  UNL     1     -10.500   2.598   0.000  0.00  0.00     0.000 F
ENDROOT
BRANCH 21 20
ATOM     20  N5  UNL     1      -7.500  -2.598   0.000  0.00  0.00     0.000 N
BRANCH 20 13
ATOM     11  C8  UNL     1      -3.750  -1.299   0.000  0.00  0.00     0.000 A
ATOM     12  C9  UNL     1      -5.250  -1.299   0.000  0.00  0.00     0.000 A
ATOM     13  C10 UNL     1      -6.000  -2.598   0.000  0.00  0.00     0.000 A
ATOM     14  N3  UNL     1      -5.250  -3.897   0.000  0.00  0.00     0.000 NA
ATOM     15  C11 UNL     1      -3.750  -3.897   0.000  0.00  0.00     0.000 A
ATOM     16  C12 UNL     1      -3.000  -2.598   0.000  0.00  0.00     0.000 A
BRANCH 16 17
ATOM     17  C13 UNL     1      -1.500  -2.598   0.000  0.00  0.00     0.000 C
ATOM     18  O2  UNL     1      -0.750  -1.299   0.000  0.00  0.00     0.000 OA
ATOM     19  N4  UNL     1      -0.750  -3.897   0.000  0.00  0.00     0.000 N
ENDBRANCH 16 17
BRANCH 11 10
ATOM     10  N2  UNL     1      -3.000   0.000   0.000  0.00  0.00     0.000 N
BRANCH 10 4
ATOM      1  C1  UNL     1      -5.250   3.897   0.000  0.00  0.00     0.000 A
ATOM      2  C2  UNL     1      -6.000   2.598   0.000  0.00  0.00     0.000 A
ATOM      3  C3  UNL     1      -5.250   1.299   0.000  0.00  0.00     0.000 A
ATOM      4  C4  UNL     1      -3.750   1.299   0.000  0.00  0.00     0.000 A
ATOM      5  C5  UNL     1      -3.000   2.598   0.000  0.00  0.00     0.000 A
ATOM      6  C6  UNL     1      -3.750   3.897   0.000  0.00  0.00     0.000 A
BRANCH 5 7
ATOM      7  C7  UNL     1      -1.500   2.598   0.000  0.00  0.00     0.000 C
ATOM      8  O1  UNL     1      -0.750   1.299   0.000  0.00  0.00     0.000 OA
ATOM      9  N1  UNL     1      -0.750   3.897   0.000  0.00  0.00     0.000 N
ENDBRANCH 5 7
ENDBRANCH 10 4
ENDBRANCH 11 10
ENDBRANCH 20 13
ENDBRANCH 21 20
TORSDOF 6