REMARK  Name = 
REMARK  3 active torsions:
REMARK  status: ('A' for Active; 'I' for Inactive)
REMARK    1  A    between atoms: _2  and  _3
REMARK    2  A    between atoms: _7  and  _8
REMARK    3  A    between atoms: _23  and  _22
ROOT
ATOM      8  C7  UNL     1      -3.639   1.597   0.000  0.00  0.00     0.000 A
ATOM      9  C8  UNL     1      -4.249   2.967   0.000  0.00  0.00     0.000 A
ATOM     10  N2  UNL     1      -3.134   3.971   0.000  0.00  0.00     0.000 NA
ATOM     11  C9  UNL     1      -1.835   3.221   0.000  0.00  0.00     0.000 A
ATOM     12  N3  UNL     1      -2.147   1.754   0.000  0.00  0.00     0.000 N
ATOM     13  C10 UNL     1      -1.032   0.750   0.000  0.00  0.00     0.000 A
ATOM     14  C11 UNL     1       0.394   1.214   0.000  0.00  0.00     0.000 A
ATOM     15  N4  UNL     1       1.276   0.000   0.000  0.00  0.00     0.000 N
ATOM     16  C12 UNL     1       0.394  -1.214   0.000  0.00  0.00     0.000 A
ATOM     17  C13 UNL     1      -1.032  -0.750   0.000  0.00  0.00     0.000 A
ATOM     18  N5  UNL     1       0.706   2.681   0.000  0.00  0.00     0.000 NA
ATOM     19  C14 UNL     1      -0.409   3.684   0.000  0.00  0.00     0.000 A
ENDROOT
BRANCH 8 7
ATOM      3  C3  UNL     1      -5.881   0.141   0.000  0.00  0.00     0.000 C
ATOM      4  C4  UNL     1      -6.192  -1.326   0.000  0.00  0.00     0.000 C
ATOM      5  N1  UNL     1      -4.893  -2.076   0.000  0.00  0.00     0.000 N
ATOM      6  C5  UNL     1      -3.779  -1.073   0.000  0.00  0.00     0.000 C
ATOM      7  C6  UNL     1      -4.389   0.298   0.000  0.00  0.00     0.000 C
ATOM     20  C15 UNL     1      -4.737  -3.568   0.000  0.00  0.00     0.000 C
ATOM     21  O1  UNL     1      -3.366  -4.178   0.000  0.00  0.00     0.000 OA
ATOM     22  N6  UNL     1      -5.950  -4.450   0.000  0.00  0.00     0.000 N
BRANCH 22 23
ATOM     23  C16 UNL     1      -5.793  -5.941   0.000  0.00  0.00     0.000 C
ATOM     24  C17 UNL     1      -7.007  -6.823   0.000  0.00  0.00     0.000 C
ATOM     25  F1  UNL     1      -8.220  -7.705   0.000  0.00  0.00     0.000 F
ATOM     26  F2  UNL     1      -6.125  -8.037   0.000  0.00  0.00     0.000 F
ATOM     27  F3  UNL     1      -7.888  -5.609   0.000  0.00  0.00     0.000 F
ENDBRANCH 22 23
BRANCH 3 2
ATOM      1  C1  UNL     1      -8.351   0.944   0.000  0.00  0.00     0.000 C
ATOM      2  C2  UNL     1      -6.884   1.256   0.000  0.00  0.00     0.000 C
ENDBRANCH 3 2
ENDBRANCH 8 7
TORSDOF 3