REMARK  Name = 
REMARK  6 active torsions:
REMARK  status: ('A' for Active; 'I' for Inactive)
REMARK    1  A    between atoms: _2  and  _3
REMARK    2  A    between atoms: _3  and  _6
REMARK    3  A    between atoms: _13  and  _15
REMARK    4  A    between atoms: _15  and  _16
REMARK    5  A    between atoms: _20  and  _22
REMARK    6  A    between atoms: _24  and  _27
ROOT
ATOM      6  N1  UNL     1       1.214  -2.726   0.000  0.00  0.00     0.000 N
ATOM      7  C3  UNL     1       0.000  -3.607   0.000  0.00  0.00     0.000 C
ATOM      8  C4  UNL     1      -1.214  -2.726   0.000  0.00  0.00     0.000 C
ATOM      9  C5  UNL     1      -0.750  -1.299   0.000  0.00  0.00     0.000 A
ATOM     10  C6  UNL     1       0.750  -1.299   0.000  0.00  0.00     0.000 A
ATOM     11  C7  UNL     1       1.500   0.000   0.000  0.00  0.00     0.000 A
ATOM     12  C8  UNL     1       0.750   1.299   0.000  0.00  0.00     0.000 A
ATOM     13  C9  UNL     1      -0.750   1.299   0.000  0.00  0.00     0.000 A
ATOM     14  C10 UNL     1      -1.500   0.000   0.000  0.00  0.00     0.000 A
ENDROOT
BRANCH 6 3
ATOM      3  S1  UNL     1       2.640  -3.189   0.000  0.00  0.00     0.000 S
ATOM      4  O1  UNL     1       3.104  -1.763   0.000  0.00  0.00     0.000 OA
ATOM      5  O2  UNL     1       2.177  -4.616   0.000  0.00  0.00     0.000 OA
BRANCH 3 2
ATOM      1  C1  UNL     1       5.181  -2.649   0.000  0.00  0.00     0.000 C
ATOM      2  C2  UNL     1       4.067  -3.653   0.000  0.00  0.00     0.000 C
ENDBRANCH 3 2
ENDBRANCH 6 3
BRANCH 13 15
ATOM     15  N2  UNL     1      -1.500   2.598   0.000  0.00  0.00     0.000 N
BRANCH 15 16
ATOM     16  C11 UNL     1      -0.750   3.897   0.000  0.00  0.00     0.000 A
ATOM     17  N3  UNL     1       0.750   3.897   0.000  0.00  0.00     0.000 NA
ATOM     18  C12 UNL     1       1.500   5.196   0.000  0.00  0.00     0.000 A
ATOM     19  C13 UNL     1       0.750   6.495   0.000  0.00  0.00     0.000 A
ATOM     20  C14 UNL     1      -0.750   6.495   0.000  0.00  0.00     0.000 A
ATOM     21  N4  UNL     1      -1.500   5.196   0.000  0.00  0.00     0.000 NA
ATOM     30  C21 UNL     1       1.500   7.794   0.000  0.00  0.00     0.000 C
BRANCH 20 22
ATOM     22  C15 UNL     1      -1.500   7.794   0.000  0.00  0.00     0.000 A
ATOM     23  C16 UNL     1      -2.992   7.951   0.000  0.00  0.00     0.000 A
ATOM     24  N5  UNL     1      -3.304   9.418   0.000  0.00  0.00     0.000 N
ATOM     25  N6  UNL     1      -2.005  10.168   0.000  0.00  0.00     0.000 NA
ATOM     26  C17 UNL     1      -0.890   9.165   0.000  0.00  0.00     0.000 A
BRANCH 24 27
ATOM     27  C18 UNL     1      -4.674  10.028   0.000  0.00  0.00     0.000 C
ATOM     28  C19 UNL     1      -4.831  11.520   0.000  0.00  0.00     0.000 C
ATOM     29  C20 UNL     1      -5.888   9.147   0.000  0.00  0.00     0.000 C
ENDBRANCH 24 27
ENDBRANCH 20 22
ENDBRANCH 15 16
ENDBRANCH 13 15
TORSDOF 6