REMARK  Name = 
REMARK  5 active torsions:
REMARK  status: ('A' for Active; 'I' for Inactive)
REMARK    1  A    between atoms: _2  and  _3
REMARK    2  A    between atoms: _3  and  _6
REMARK    3  A    between atoms: _8  and  _10
REMARK    4  A    between atoms: _8  and  _13
REMARK    5  A    between atoms: _15  and  _18
ROOT
ATOM     18  C11 UNL     1       0.706   2.681   0.000  0.00  0.00     0.000 A
ATOM     19  C12 UNL     1       0.394   1.214   0.000  0.00  0.00     0.000 A
ATOM     20  C13 UNL     1       1.276   0.000   0.000  0.00  0.00     0.000 A
ATOM     21  C14 UNL     1       0.394  -1.214   0.000  0.00  0.00     0.000 A
ATOM     22  N5  UNL     1      -1.032  -0.750   0.000  0.00  0.00     0.000 N
ATOM     23  C15 UNL     1      -1.032   0.750   0.000  0.00  0.00     0.000 A
ATOM     24  N6  UNL     1      -2.147   1.754   0.000  0.00  0.00     0.000 NA
ATOM     25  C16 UNL     1      -1.835   3.221   0.000  0.00  0.00     0.000 A
ATOM     26  N7  UNL     1      -0.409   3.684   0.000  0.00  0.00     0.000 NA
ENDROOT
BRANCH 18 15
ATOM     13  N3  UNL     1       4.560   3.144   0.000  0.00  0.00     0.000 N
ATOM     14  C8  UNL     1       3.346   2.263   0.000  0.00  0.00     0.000 A
ATOM     15  C9  UNL     1       2.133   3.144   0.000  0.00  0.00     0.000 A
ATOM     16  C10 UNL     1       2.596   4.571   0.000  0.00  0.00     0.000 A
ATOM     17  N4  UNL     1       4.096   4.571   0.000  0.00  0.00     0.000 NA
BRANCH 13 8
ATOM      6  N1  UNL     1       7.877   3.644   0.000  0.00  0.00     0.000 N
ATOM      7  C3  UNL     1       6.450   4.107   0.000  0.00  0.00     0.000 C
ATOM      8  C4  UNL     1       5.986   2.681   0.000  0.00  0.00     0.000 C
ATOM      9  C5  UNL     1       7.413   2.217   0.000  0.00  0.00     0.000 C
BRANCH 6 3
ATOM      3  S1  UNL     1       9.213   4.325   0.000  0.00  0.00     0.000 S
ATOM      4  O1  UNL     1       8.532   5.661   0.000  0.00  0.00     0.000 OA
ATOM      5  O2  UNL     1       9.894   2.988   0.000  0.00  0.00     0.000 OA
BRANCH 3 2
ATOM      1  C1  UNL     1      10.628   6.504   0.000  0.00  0.00     0.000 C
ATOM      2  C2  UNL     1      10.550   5.006   0.000  0.00  0.00     0.000 C
ENDBRANCH 3 2
ENDBRANCH 6 3
BRANCH 8 10
ATOM     10  C6  UNL     1       5.523   1.254   0.000  0.00  0.00     0.000 C
ATOM     11  C7  UNL     1       6.527   0.139   0.000  0.00  0.00     0.000 C
ATOM     12  N2  UNL     1       7.530  -0.975   0.000  0.00  0.00     0.000 N
ENDBRANCH 8 10
ENDBRANCH 13 8
ENDBRANCH 18 15
TORSDOF 5