
     RDKit          2D

 26 29  0  0  0  0  0  0  0  0999 V2000
   10.6280    6.5037    0.0000 C   0  0  0  0  0  0  0  0  0  0  0  0
   10.5495    5.0058    0.0000 C   0  0  0  0  0  0  0  0  0  0  0  0
    9.2130    4.3248    0.0000 S   0  0  0  0  0  0  0  0  0  0  0  0
    8.5320    5.6613    0.0000 O   0  0  0  0  0  0  0  0  0  0  0  0
    9.8940    2.9883    0.0000 O   0  0  0  0  0  0  0  0  0  0  0  0
    7.8765    3.6438    0.0000 N   0  0  0  0  0  0  0  0  0  0  0  0
    6.4499    4.1073    0.0000 C   0  0  0  0  0  0  0  0  0  0  0  0
    5.9864    2.6807    0.0000 C   0  0  0  0  0  0  0  0  0  0  0  0
    7.4130    2.2172    0.0000 C   0  0  0  0  0  0  0  0  0  0  0  0
    5.5229    1.2542    0.0000 C   0  0  0  0  0  0  0  0  0  0  0  0
    6.5266    0.1394    0.0000 C   0  0  0  0  0  0  0  0  0  0  0  0
    7.5303   -0.9753    0.0000 N   0  0  0  0  0  0  0  0  0  0  0  0
    4.5598    3.1443    0.0000 N   0  0  0  0  0  0  0  0  0  0  0  0
    3.3463    2.2626    0.0000 C   0  0  0  0  0  0  0  0  0  0  0  0
    2.1328    3.1443    0.0000 C   0  0  0  0  0  0  0  0  0  0  0  0
    2.5963    4.5709    0.0000 C   0  0  0  0  0  0  0  0  0  0  0  0
    4.0963    4.5709    0.0000 N   0  0  0  0  0  0  0  0  0  0  0  0
    0.7062    2.6807    0.0000 C   0  0  0  0  0  0  0  0  0  0  0  0
    0.3943    1.2135    0.0000 C   0  0  0  0  0  0  0  0  0  0  0  0
    1.2760    0.0000    0.0000 C   0  0  0  0  0  0  0  0  0  0  0  0
    0.3943   -1.2135    0.0000 C   0  0  0  0  0  0  0  0  0  0  0  0
   -1.0323   -0.7500    0.0000 N   0  0  0  0  0  0  0  0  0  0  0  0
   -1.0323    0.7500    0.0000 C   0  0  0  0  0  0  0  0  0  0  0  0
   -2.1470    1.7537    0.0000 N   0  0  0  0  0  0  0  0  0  0  0  0
   -1.8351    3.2209    0.0000 C   0  0  0  0  0  0  0  0  0  0  0  0
   -0.4086    3.6844    0.0000 N   0  0  0  0  0  0  0  0  0  0  0  0
  1  2  1  0
  2  3  1  0
  3  4  2  0
  3  5  2  0
  3  6  1  0
  6  7  1  0
  7  8  1  0
  8  9  1  0
  8 10  1  0
 10 11  1  0
 11 12  3  0
  8 13  1  0
 13 14  1  0
 14 15  2  0
 15 16  1  0
 16 17  2  0
 15 18  1  0
 18 19  2  0
 19 20  1  0
 20 21  2  0
 21 22  1  0
 22 23  1  0
 23 24  2  0
 24 25  1  0
 25 26  2  0
  9  6  1  0
 17 13  1  0
 26 18  1  0
 23 19  1  0
M  END
