
     RDKit          2D

 27 30  0  0  0  0  0  0  0  0999 V2000
   -8.3515    0.9439    0.0000 C   0  0  0  0  0  0  0  0  0  0  0  0
   -6.8843    1.2558    0.0000 C   0  0  0  0  0  0  0  0  0  0  0  0
   -5.8806    0.1411    0.0000 C   0  0  0  0  0  0  0  0  0  0  0  0
   -6.1924   -1.3261    0.0000 C   0  0  0  0  0  0  0  0  0  0  0  0
   -4.8934   -2.0761    0.0000 N   0  0  0  0  0  0  0  0  0  0  0  0
   -3.7787   -1.0725    0.0000 C   0  0  0  0  0  0  0  0  0  0  0  0
   -4.3888    0.2979    0.0000 C   0  0  0  0  0  0  0  0  0  0  0  0
   -3.6388    1.5969    0.0000 C   0  0  0  0  0  0  0  0  0  0  0  0
   -4.2489    2.9672    0.0000 C   0  0  0  0  0  0  0  0  0  0  0  0
   -3.1342    3.9709    0.0000 N   0  0  0  0  0  0  0  0  0  0  0  0
   -1.8351    3.2209    0.0000 C   0  0  0  0  0  0  0  0  0  0  0  0
   -2.1470    1.7537    0.0000 N   0  0  0  0  0  0  0  0  0  0  0  0
   -1.0323    0.7500    0.0000 C   0  0  0  0  0  0  0  0  0  0  0  0
    0.3943    1.2135    0.0000 C   0  0  0  0  0  0  0  0  0  0  0  0
    1.2760    0.0000    0.0000 N   0  0  0  0  0  0  0  0  0  0  0  0
    0.3943   -1.2135    0.0000 C   0  0  0  0  0  0  0  0  0  0  0  0
   -1.0323   -0.7500    0.0000 C   0  0  0  0  0  0  0  0  0  0  0  0
    0.7062    2.6807    0.0000 N   0  0  0  0  0  0  0  0  0  0  0  0
   -0.4086    3.6844    0.0000 C   0  0  0  0  0  0  0  0  0  0  0  0
   -4.7366   -3.5679    0.0000 C   0  0  0  0  0  0  0  0  0  0  0  0
   -3.3663   -4.1780    0.0000 O   0  0  0  0  0  0  0  0  0  0  0  0
   -5.9501   -4.4496    0.0000 N   0  0  0  0  0  0  0  0  0  0  0  0
   -5.7933   -5.9414    0.0000 C   0  0  0  0  0  0  0  0  0  0  0  0
   -7.0069   -6.8231    0.0000 C   0  0  0  0  0  0  0  0  0  0  0  0
   -8.2204   -7.7047    0.0000 F   0  0  0  0  0  0  0  0  0  0  0  0
   -6.1252   -8.0366    0.0000 F   0  0  0  0  0  0  0  0  0  0  0  0
   -7.8885   -5.6095    0.0000 F   0  0  0  0  0  0  0  0  0  0  0  0
  1  2  1  0
  2  3  1  0
  3  4  1  0
  4  5  1  0
  5  6  1  0
  6  7  1  0
  7  8  1  0
  8  9  2  0
  9 10  1  0
 10 11  2  0
 11 12  1  0
 12 13  1  0
 13 14  2  0
 14 15  1  0
 15 16  1  0
 16 17  2  0
 14 18  1  0
 18 19  2  0
  5 20  1  0
 20 21  2  0
 20 22  1  0
 22 23  1  0
 23 24  1  0
 24 25  1  0
 24 26  1  0
 24 27  1  0
  7  3  1  0
 12  8  1  0
 19 11  1  0
 17 13  1  0
M  END
