REMARK  Name = 
REMARK  5 active torsions:
REMARK  status: ('A' for Active; 'I' for Inactive)
REMARK    1  A    between atoms: _3  and  _4
REMARK    2  A    between atoms: _7  and  _6
REMARK    3  A    between atoms: _15  and  _16
REMARK    4  A    between atoms: _19  and  _22
REMARK    5  A    between atoms: _22  and  _23
ROOT
ATOM      7  C5  UNL     1      -0.000  -3.607   0.000  0.00  0.00     0.000 A
ATOM      8  N2  UNL     1      -1.214  -2.726   0.000  0.00  0.00     0.000 NA
ATOM      9  N3  UNL     1      -0.750  -1.299   0.000  0.00  0.00     0.000 N
ATOM     10  C6  UNL     1       0.750  -1.299   0.000  0.00  0.00     0.000 A
ATOM     11  N4  UNL     1       1.214  -2.726   0.000  0.00  0.00     0.000 NA
ATOM     12  C7  UNL     1       1.500   0.000   0.000  0.00  0.00     0.000 A
ATOM     13  C8  UNL     1       0.750   1.299   0.000  0.00  0.00     0.000 A
ATOM     14  C9  UNL     1      -0.750   1.299   0.000  0.00  0.00     0.000 A
ATOM     15  C10 UNL     1      -1.500   0.000   0.000  0.00  0.00     0.000 A
ENDROOT
BRANCH 15 16
ATOM     16  C11 UNL     1      -3.000   0.000   0.000  0.00  0.00     0.000 A
ATOM     17  C12 UNL     1      -3.750   1.299   0.000  0.00  0.00     0.000 A
ATOM     18  C13 UNL     1      -5.250   1.299   0.000  0.00  0.00     0.000 A
ATOM     19  C14 UNL     1      -6.000   0.000   0.000  0.00  0.00     0.000 A
ATOM     20  C15 UNL     1      -5.250  -1.299   0.000  0.00  0.00     0.000 A
ATOM     21  C16 UNL     1      -3.750  -1.299   0.000  0.00  0.00     0.000 A
BRANCH 19 22
ATOM     22  C17 UNL     1      -7.500   0.000   0.000  0.00  0.00     0.000 C
BRANCH 22 23
ATOM     23  N5  UNL     1      -8.250   1.299   0.000  0.00  0.00     0.000 N
ATOM     24  C18 UNL     1      -7.500   2.598   0.000  0.00  0.00     0.000 C
ATOM     25  C19 UNL     1      -8.250   3.897   0.000  0.00  0.00     0.000 C
ATOM     26  S1  UNL     1      -9.750   3.897   0.000  0.00  0.00     0.000 S
ATOM     27  O2  UNL     1     -11.159   4.410   0.000  0.00  0.00     0.000 OA
ATOM     28  O3  UNL     1      -9.489   5.374   0.000  0.00  0.00     0.000 OA
ATOM     29  C20 UNL     1     -10.500   2.598   0.000  0.00  0.00     0.000 C
ATOM     30  C21 UNL     1      -9.750   1.299   0.000  0.00  0.00     0.000 C
ENDBRANCH 22 23
ENDBRANCH 19 22
ENDBRANCH 15 16
BRANCH 7 6
ATOM      4  C4  UNL     1      -1.299  -5.857   0.000  0.00  0.00     0.000 C
ATOM      5  O1  UNL     1      -2.598  -5.107   0.000  0.00  0.00     0.000 OA
ATOM      6  N1  UNL     1      -0.000  -5.107   0.000  0.00  0.00     0.000 N
BRANCH 4 3
ATOM      1  C1  UNL     1      -2.049  -8.656   0.000  0.00  0.00     0.000 C
ATOM      2  C2  UNL     1      -0.549  -8.656   0.000  0.00  0.00     0.000 C
ATOM      3  C3  UNL     1      -1.299  -7.357   0.000  0.00  0.00     0.000 C
ENDBRANCH 4 3
ENDBRANCH 7 6
TORSDOF 5