REMARK  Name = 
REMARK  7 active torsions:
REMARK  status: ('A' for Active; 'I' for Inactive)
REMARK    1  A    between atoms: _2  and  _3
REMARK    2  A    between atoms: _3  and  _4
REMARK    3  A    between atoms: _4  and  _7
REMARK    4  A    between atoms: _14  and  _16
REMARK    5  A    between atoms: _16  and  _17
REMARK    6  A    between atoms: _21  and  _23
REMARK    7  A    between atoms: _25  and  _28
ROOT
ATOM      7  N1  UNL     1       1.214  -2.726   0.000  0.00  0.00     0.000 N
ATOM      8  C4  UNL     1       0.000  -3.607   0.000  0.00  0.00     0.000 C
ATOM      9  C5  UNL     1      -1.214  -2.726   0.000  0.00  0.00     0.000 C
ATOM     10  C6  UNL     1      -0.750  -1.299   0.000  0.00  0.00     0.000 A
ATOM     11  C7  UNL     1       0.750  -1.299   0.000  0.00  0.00     0.000 A
ATOM     12  C8  UNL     1       1.500   0.000   0.000  0.00  0.00     0.000 A
ATOM     13  C9  UNL     1       0.750   1.299   0.000  0.00  0.00     0.000 A
ATOM     14  C10 UNL     1      -0.750   1.299   0.000  0.00  0.00     0.000 A
ATOM     15  C11 UNL     1      -1.500   0.000   0.000  0.00  0.00     0.000 A
ENDROOT
BRANCH 7 4
ATOM      4  S1  UNL     1       2.640  -3.189   0.000  0.00  0.00     0.000 S
ATOM      5  O1  UNL     1       3.104  -1.763   0.000  0.00  0.00     0.000 OA
ATOM      6  O2  UNL     1       2.177  -4.616   0.000  0.00  0.00     0.000 OA
BRANCH 4 3
ATOM      3  C3  UNL     1       4.067  -3.653   0.000  0.00  0.00     0.000 C
BRANCH 3 2
ATOM      1  C1  UNL     1       6.608  -3.112   0.000  0.00  0.00     0.000 C
ATOM      2  C2  UNL     1       5.181  -2.649   0.000  0.00  0.00     0.000 C
ENDBRANCH 3 2
ENDBRANCH 4 3
ENDBRANCH 7 4
BRANCH 14 16
ATOM     16  N2  UNL     1      -1.500   2.598   0.000  0.00  0.00     0.000 N
BRANCH 16 17
ATOM     17  C12 UNL     1      -0.750   3.897   0.000  0.00  0.00     0.000 A
ATOM     18  N3  UNL     1       0.750   3.897   0.000  0.00  0.00     0.000 NA
ATOM     19  C13 UNL     1       1.500   5.196   0.000  0.00  0.00     0.000 A
ATOM     20  C14 UNL     1       0.750   6.495   0.000  0.00  0.00     0.000 A
ATOM     21  C15 UNL     1      -0.750   6.495   0.000  0.00  0.00     0.000 A
ATOM     22  N4  UNL     1      -1.500   5.196   0.000  0.00  0.00     0.000 NA
ATOM     31  C22 UNL     1       1.500   7.794   0.000  0.00  0.00     0.000 C
BRANCH 21 23
ATOM     23  C16 UNL     1      -1.500   7.794   0.000  0.00  0.00     0.000 A
ATOM     24  C17 UNL     1      -2.992   7.951   0.000  0.00  0.00     0.000 A
ATOM     25  N5  UNL     1      -3.304   9.418   0.000  0.00  0.00     0.000 N
ATOM     26  N6  UNL     1      -2.005  10.168   0.000  0.00  0.00     0.000 NA
ATOM     27  C18 UNL     1      -0.890   9.165   0.000  0.00  0.00     0.000 A
BRANCH 25 28
ATOM     28  C19 UNL     1      -4.674  10.028   0.000  0.00  0.00     0.000 C
ATOM     29  C20 UNL     1      -4.831  11.520   0.000  0.00  0.00     0.000 C
ATOM     30  C21 UNL     1      -5.888   9.147   0.000  0.00  0.00     0.000 C
ENDBRANCH 25 28
ENDBRANCH 21 23
ENDBRANCH 16 17
ENDBRANCH 14 16
TORSDOF 7