REMARK  Name = 
REMARK  3 active torsions:
REMARK  status: ('A' for Active; 'I' for Inactive)
REMARK    1  A    between atoms: _4  and  _2
REMARK    2  A    between atoms: _12  and  _13
REMARK    3  A    between atoms: _13  and  _14
ROOT
ATOM     14  C9  UNL     1       4.500  -2.598   0.000  0.00  0.00     0.000 C
ATOM     15  C10 UNL     1       5.250  -1.299   0.000  0.00  0.00     0.000 C
ATOM     16  C11 UNL     1       6.000  -2.598   0.000  0.00  0.00     0.000 C
ATOM     17  C12 UNL     1       7.500  -2.598   0.000  0.00  0.00     0.000 C
ATOM     18  C13 UNL     1       6.750  -3.897   0.000  0.00  0.00     0.000 C
ATOM     19  C14 UNL     1       5.250  -3.897   0.000  0.00  0.00     0.000 C
ATOM     20  C15 UNL     1       7.500  -1.500   0.000  0.00  0.00     0.000 C
ATOM     21  C16 UNL     1       7.500   0.000   0.000  0.00  0.00     0.000 C
ATOM     22  O2  UNL     1       8.250   1.299   0.000  0.00  0.00     0.000 OA
ATOM     23  C17 UNL     1       8.250  -1.299   0.000  0.00  0.00     0.000 C
ATOM     24  C18 UNL     1       6.000   0.000   0.000  0.00  0.00     0.000 C
ENDROOT
BRANCH 14 13
ATOM     13  N4  UNL     1       3.000  -2.598   0.000  0.00  0.00     0.000 N
BRANCH 13 12
ATOM      4  C2  UNL     1       0.750  -3.897   0.000  0.00  0.00     0.000 A
ATOM      5  C3  UNL     1      -0.000  -5.196   0.000  0.00  0.00     0.000 A
ATOM      6  N2  UNL     1       0.750  -6.495   0.000  0.00  0.00     0.000 NA
ATOM      7  C4  UNL     1       2.250  -6.495   0.000  0.00  0.00     0.000 A
ATOM      8  N3  UNL     1       3.254  -7.610   0.000  0.00  0.00     0.000 N
ATOM      9  C5  UNL     1       4.624  -7.000   0.000  0.00  0.00     0.000 A
ATOM     10  C6  UNL     1       4.467  -5.508   0.000  0.00  0.00     0.000 A
ATOM     11  C7  UNL     1       3.000  -5.196   0.000  0.00  0.00     0.000 A
ATOM     12  C8  UNL     1       2.250  -3.897   0.000  0.00  0.00     0.000 A
BRANCH 4 2
ATOM      1  N1  UNL     1      -1.500  -2.598   0.000  0.00  0.00     0.000 N
ATOM      2  C1  UNL     1      -0.000  -2.598   0.000  0.00  0.00     0.000 C
ATOM      3  O1  UNL     1       0.750  -1.299   0.000  0.00  0.00     0.000 OA
ENDBRANCH 4 2
ENDBRANCH 13 12
ENDBRANCH 14 13
TORSDOF 3