REMARK  Name = 
REMARK  7 active torsions:
REMARK  status: ('A' for Active; 'I' for Inactive)
REMARK    1  A    between atoms: _7  and  _10
REMARK    2  A    between atoms: _10  and  _11
REMARK    3  A    between atoms: _15  and  _17
REMARK    4  A    between atoms: _19  and  _22
REMARK    5  A    between atoms: _22  and  _23
REMARK    6  A    between atoms: _29  and  _27
REMARK    7  A    between atoms: _29  and  _30
ROOT
ATOM      1  C1  UNL     1       1.214  -2.726   0.000  0.00  0.00     0.000 C
ATOM      2  C2  UNL     1       0.000  -3.607   0.000  0.00  0.00     0.000 C
ATOM      3  N1  UNL     1      -1.214  -2.726   0.000  0.00  0.00     0.000 N
ATOM      4  C3  UNL     1      -0.750  -1.299   0.000  0.00  0.00     0.000 A
ATOM      5  C4  UNL     1       0.750  -1.299   0.000  0.00  0.00     0.000 A
ATOM      6  C5  UNL     1       1.500   0.000   0.000  0.00  0.00     0.000 A
ATOM      7  C6  UNL     1       0.750   1.299   0.000  0.00  0.00     0.000 A
ATOM      8  C7  UNL     1      -0.750   1.299   0.000  0.00  0.00     0.000 A
ATOM      9  C8  UNL     1      -1.500   0.000   0.000  0.00  0.00     0.000 A
ATOM     27  C19 UNL     1      -2.640  -3.189   0.000  0.00  0.00     0.000 C
ATOM     28  O1  UNL     1      -3.755  -2.186   0.000  0.00  0.00     0.000 OA
ENDROOT
BRANCH 7 10
ATOM     10  N2  UNL     1       1.500   2.598   0.000  0.00  0.00     0.000 N
BRANCH 10 11
ATOM     11  C9  UNL     1       3.000   2.598   0.000  0.00  0.00     0.000 A
ATOM     12  N3  UNL     1       3.750   1.299   0.000  0.00  0.00     0.000 NA
ATOM     13  C10 UNL     1       5.250   1.299   0.000  0.00  0.00     0.000 A
ATOM     14  C11 UNL     1       6.000   2.598   0.000  0.00  0.00     0.000 A
ATOM     15  C12 UNL     1       5.250   3.897   0.000  0.00  0.00     0.000 A
ATOM     16  N4  UNL     1       3.750   3.897   0.000  0.00  0.00     0.000 NA
ATOM     26  F1  UNL     1       7.500   2.598   0.000  0.00  0.00     0.000 F
BRANCH 15 17
ATOM     17  C13 UNL     1       6.000   5.196   0.000  0.00  0.00     0.000 A
ATOM     18  C14 UNL     1       5.390   6.566   0.000  0.00  0.00     0.000 A
ATOM     19  N5  UNL     1       6.505   7.570   0.000  0.00  0.00     0.000 N
ATOM     20  N6  UNL     1       7.804   6.820   0.000  0.00  0.00     0.000 NA
ATOM     21  C15 UNL     1       7.492   5.353   0.000  0.00  0.00     0.000 A
BRANCH 19 22
ATOM     22  C16 UNL     1       6.348   9.062   0.000  0.00  0.00     0.000 C
BRANCH 22 23
ATOM     23  C17 UNL     1       7.561   9.944   0.000  0.00  0.00     0.000 C
ATOM     24  C18 UNL     1       7.405  11.435   0.000  0.00  0.00     0.000 C
ATOM     25  N7  UNL     1       7.248  12.927   0.000  0.00  0.00     0.000 N
ENDBRANCH 22 23
ENDBRANCH 19 22
ENDBRANCH 15 17
ENDBRANCH 10 11
ENDBRANCH 7 10
BRANCH 27 29
ATOM     29  C20 UNL     1      -2.952  -4.656   0.000  0.00  0.00     0.000 C
BRANCH 29 30
ATOM     30  N8  UNL     1      -4.379  -5.120   0.000  0.00  0.00     0.000 N
ATOM     31  C21 UNL     1      -5.493  -4.116   0.000  0.00  0.00     0.000 C
ATOM     32  C22 UNL     1      -6.920  -4.580   0.000  0.00  0.00     0.000 C
ATOM     33  S1  UNL     1      -7.232  -6.047   0.000  0.00  0.00     0.000 S
ATOM     34  O2  UNL     1      -8.027  -7.319   0.000  0.00  0.00     0.000 OA
ATOM     35  O3  UNL     1      -8.623  -5.485   0.000  0.00  0.00     0.000 OA
ATOM     36  C23 UNL     1      -6.117  -7.051   0.000  0.00  0.00     0.000 C
ATOM     37  C24 UNL     1      -4.690  -6.587   0.000  0.00  0.00     0.000 C
ENDBRANCH 29 30
ENDBRANCH 27 29
TORSDOF 7