REMARK  Name = 
REMARK  5 active torsions:
REMARK  status: ('A' for Active; 'I' for Inactive)
REMARK    1  A    between atoms: _5  and  _17
REMARK    2  A    between atoms: _7  and  _8
REMARK    3  A    between atoms: _10  and  _13
REMARK    4  A    between atoms: _13  and  _14
REMARK    5  A    between atoms: _17  and  _18
ROOT
ATOM     18  C12 UNL     1       0.750  -1.299   0.000  0.00  0.00     0.000 A
ATOM     19  C13 UNL     1       1.500   0.000   0.000  0.00  0.00     0.000 A
ATOM     20  C14 UNL     1       0.750   1.299   0.000  0.00  0.00     0.000 A
ATOM     21  C15 UNL     1      -0.750   1.299   0.000  0.00  0.00     0.000 A
ATOM     22  C16 UNL     1      -1.500   0.000   0.000  0.00  0.00     0.000 A
ATOM     23  C17 UNL     1      -0.750  -1.299   0.000  0.00  0.00     0.000 A
ATOM     24  C18 UNL     1      -1.214   2.726   0.000  0.00  0.00     0.000 C
ATOM     25  O1  UNL     1      -2.640   3.189   0.000  0.00  0.00     0.000 OA
ATOM     26  N7  UNL     1      -0.000   3.607   0.000  0.00  0.00     0.000 N
ATOM     27  C19 UNL     1       1.214   2.726   0.000  0.00  0.00     0.000 C
ENDROOT
BRANCH 18 17
ATOM     17  N6  UNL     1       1.500  -2.598   0.000  0.00  0.00     0.000 N
BRANCH 17 5
ATOM      1  C1  UNL     1      -1.500  -7.794   0.000  0.00  0.00     0.000 C
ATOM      2  C2  UNL     1      -0.750  -6.495   0.000  0.00  0.00     0.000 A
ATOM      3  C3  UNL     1      -1.500  -5.196   0.000  0.00  0.00     0.000 A
ATOM      4  N1  UNL     1      -0.750  -3.897   0.000  0.00  0.00     0.000 NA
ATOM      5  C4  UNL     1       0.750  -3.897   0.000  0.00  0.00     0.000 A
ATOM      6  N2  UNL     1       1.500  -5.196   0.000  0.00  0.00     0.000 NA
ATOM      7  C5  UNL     1       0.750  -6.495   0.000  0.00  0.00     0.000 A
BRANCH 7 8
ATOM      8  C6  UNL     1       1.500  -7.794   0.000  0.00  0.00     0.000 A
ATOM      9  C7  UNL     1       2.992  -7.951   0.000  0.00  0.00     0.000 A
ATOM     10  N3  UNL     1       3.304  -9.418   0.000  0.00  0.00     0.000 N
ATOM     11  N4  UNL     1       2.005 -10.168   0.000  0.00  0.00     0.000 NA
ATOM     12  C8  UNL     1       0.890  -9.165   0.000  0.00  0.00     0.000 A
BRANCH 10 13
ATOM     13  C9  UNL     1       4.674 -10.028   0.000  0.00  0.00     0.000 C
BRANCH 13 14
ATOM     14  C10 UNL     1       4.831 -11.520   0.000  0.00  0.00     0.000 C
ATOM     15  C11 UNL     1       6.201 -12.130   0.000  0.00  0.00     0.000 C
ATOM     16  N5  UNL     1       7.571 -12.740   0.000  0.00  0.00     0.000 N
ENDBRANCH 13 14
ENDBRANCH 10 13
ENDBRANCH 7 8
ENDBRANCH 17 5
ENDBRANCH 18 17
TORSDOF 5