REMARK  Name = 
REMARK  6 active torsions:
REMARK  status: ('A' for Active; 'I' for Inactive)
REMARK    1  A    between atoms: _5  and  _16
REMARK    2  A    between atoms: _7  and  _8
REMARK    3  A    between atoms: _10  and  _13
REMARK    4  A    between atoms: _16  and  _17
REMARK    5  A    between atoms: _23  and  _26
REMARK    6  A    between atoms: _26  and  _29
ROOT
ATOM     17  C12 UNL     1       0.750  -1.299   0.000  0.00  0.00     0.000 A
ATOM     18  C13 UNL     1       1.500   0.000   0.000  0.00  0.00     0.000 A
ATOM     19  C14 UNL     1       0.750   1.299   0.000  0.00  0.00     0.000 A
ATOM     20  C15 UNL     1      -0.750   1.299   0.000  0.00  0.00     0.000 A
ATOM     21  C16 UNL     1      -1.500   0.000   0.000  0.00  0.00     0.000 A
ATOM     22  C17 UNL     1      -0.750  -1.299   0.000  0.00  0.00     0.000 A
ATOM     23  N6  UNL     1      -1.214   2.726   0.000  0.00  0.00     0.000 N
ATOM     24  C18 UNL     1       0.000   3.607   0.000  0.00  0.00     0.000 C
ATOM     25  C19 UNL     1       1.214   2.726   0.000  0.00  0.00     0.000 C
ENDROOT
BRANCH 23 26
ATOM     26  S1  UNL     1      -2.640   3.189   0.000  0.00  0.00     0.000 S
ATOM     27  O1  UNL     1      -3.104   1.763   0.000  0.00  0.00     0.000 OA
ATOM     28  O2  UNL     1      -2.177   4.616   0.000  0.00  0.00     0.000 OA
BRANCH 26 29
ATOM     29  C20 UNL     1      -4.067   3.653   0.000  0.00  0.00     0.000 C
ATOM     30  C21 UNL     1      -5.534   3.341   0.000  0.00  0.00     0.000 C
ATOM     31  C22 UNL     1      -5.070   4.767   0.000  0.00  0.00     0.000 C
ENDBRANCH 26 29
ENDBRANCH 23 26
BRANCH 17 16
ATOM     16  N5  UNL     1       1.500  -2.598   0.000  0.00  0.00     0.000 N
BRANCH 16 5
ATOM      1  C1  UNL     1      -1.500  -7.794   0.000  0.00  0.00     0.000 C
ATOM      2  C2  UNL     1      -0.750  -6.495   0.000  0.00  0.00     0.000 A
ATOM      3  C3  UNL     1      -1.500  -5.196   0.000  0.00  0.00     0.000 A
ATOM      4  N1  UNL     1      -0.750  -3.897   0.000  0.00  0.00     0.000 NA
ATOM      5  C4  UNL     1       0.750  -3.897   0.000  0.00  0.00     0.000 A
ATOM      6  N2  UNL     1       1.500  -5.196   0.000  0.00  0.00     0.000 NA
ATOM      7  C5  UNL     1       0.750  -6.495   0.000  0.00  0.00     0.000 A
BRANCH 7 8
ATOM      8  C6  UNL     1       1.500  -7.794   0.000  0.00  0.00     0.000 A
ATOM      9  C7  UNL     1       2.992  -7.951   0.000  0.00  0.00     0.000 A
ATOM     10  N3  UNL     1       3.304  -9.418   0.000  0.00  0.00     0.000 N
ATOM     11  N4  UNL     1       2.005 -10.168   0.000  0.00  0.00     0.000 NA
ATOM     12  C8  UNL     1       0.890  -9.165   0.000  0.00  0.00     0.000 A
BRANCH 10 13
ATOM     13  C9  UNL     1       4.674 -10.028   0.000  0.00  0.00     0.000 C
ATOM     14  C10 UNL     1       4.831 -11.520   0.000  0.00  0.00     0.000 C
ATOM     15  C11 UNL     1       5.888  -9.147   0.000  0.00  0.00     0.000 C
ENDBRANCH 10 13
ENDBRANCH 7 8
ENDBRANCH 16 5
ENDBRANCH 17 16
TORSDOF 6