REMARK  Name = 
REMARK  3 active torsions:
REMARK  status: ('A' for Active; 'I' for Inactive)
REMARK    1  A    between atoms: _7  and  _8
REMARK    2  A    between atoms: _8  and  _9
REMARK    3  A    between atoms: _17  and  _18
ROOT
ATOM      1  C1  UNL     1       1.500   0.000   0.000  0.00  0.00     0.000 C
ATOM      2  C2  UNL     1       0.750  -1.299   0.000  0.00  0.00     0.000 C
ATOM      3  C3  UNL     1       2.250  -1.299   0.000  0.00  0.00     0.000 C
ATOM      4  C4  UNL     1       3.000  -0.000   0.000  0.00  0.00     0.000 C
ATOM      5  C5  UNL     1      -0.201   0.750   0.000  0.00  0.00     0.000 C
ATOM      6  C6  UNL     1      -1.500   0.000   0.000  0.00  0.00     0.000 C
ATOM      7  C7  UNL     1      -0.750  -1.299   0.000  0.00  0.00     0.000 C
ATOM     21  C16 UNL     1      -0.750   1.299   0.000  0.00  0.00     0.000 C
ATOM     22  C17 UNL     1       0.750   1.299   0.000  0.00  0.00     0.000 C
ATOM     23  C18 UNL     1       2.250   1.299   0.000  0.00  0.00     0.000 C
ATOM     24  O2  UNL     1       3.000   2.598   0.000  0.00  0.00     0.000 OA
ENDROOT
BRANCH 7 8
ATOM      8  N1  UNL     1      -1.500  -2.598   0.000  0.00  0.00     0.000 N
BRANCH 8 9
ATOM      9  C8  UNL     1      -3.000  -2.598   0.000  0.00  0.00     0.000 A
ATOM     10  C9  UNL     1      -3.750  -1.299   0.000  0.00  0.00     0.000 A
ATOM     11  C10 UNL     1      -3.287   0.128   0.000  0.00  0.00     0.000 A
ATOM     12  C11 UNL     1      -4.500   1.009   0.000  0.00  0.00     0.000 A
ATOM     13  N2  UNL     1      -5.713   0.128   0.000  0.00  0.00     0.000 N
ATOM     14  C12 UNL     1      -5.250  -1.299   0.000  0.00  0.00     0.000 A
ATOM     15  N3  UNL     1      -6.000  -2.598   0.000  0.00  0.00     0.000 NA
ATOM     16  C13 UNL     1      -5.250  -3.897   0.000  0.00  0.00     0.000 A
ATOM     17  C14 UNL     1      -3.750  -3.897   0.000  0.00  0.00     0.000 A
BRANCH 17 18
ATOM     18  C15 UNL     1      -3.000  -5.196   0.000  0.00  0.00     0.000 C
ATOM     19  O1  UNL     1      -1.500  -5.196   0.000  0.00  0.00     0.000 OA
ATOM     20  N4  UNL     1      -3.750  -6.495   0.000  0.00  0.00     0.000 N
ENDBRANCH 17 18
ENDBRANCH 8 9
ENDBRANCH 7 8
TORSDOF 3