REMARK  Name = 
REMARK  6 active torsions:
REMARK  status: ('A' for Active; 'I' for Inactive)
REMARK    1  A    between atoms: _2  and  _3
REMARK    2  A    between atoms: _2  and  _26
REMARK    3  A    between atoms: _6  and  _9
REMARK    4  A    between atoms: _9  and  _10
REMARK    5  A    between atoms: _12  and  _18
REMARK    6  A    between atoms: _14  and  _15
ROOT
ATOM     18  C13 UNL     1      -6.924   3.533   0.000  0.00  0.00     0.000 C
ATOM     19  C14 UNL     1      -7.081   5.025   0.000  0.00  0.00     0.000 C
ATOM     20  O2  UNL     1      -8.451   5.635   0.000  0.00  0.00     0.000 OA
ATOM     21  C15 UNL     1      -9.665   4.753   0.000  0.00  0.00     0.000 C
ATOM     22  C16 UNL     1      -9.508   3.262   0.000  0.00  0.00     0.000 C
ATOM     23  C17 UNL     1      -8.137   2.651   0.000  0.00  0.00     0.000 C
ATOM     24  C18 UNL     1      -7.981   1.160   0.000  0.00  0.00     0.000 C
ATOM     25  N5  UNL     1      -7.824  -0.332   0.000  0.00  0.00     0.000 N
ENDROOT
BRANCH 18 12
ATOM     10  C9  UNL     1      -3.750   1.299   0.000  0.00  0.00     0.000 A
ATOM     11  N2  UNL     1      -5.242   1.456   0.000  0.00  0.00     0.000 NA
ATOM     12  N3  UNL     1      -5.554   2.923   0.000  0.00  0.00     0.000 N
ATOM     13  C10 UNL     1      -4.255   3.673   0.000  0.00  0.00     0.000 A
ATOM     14  C11 UNL     1      -3.140   2.669   0.000  0.00  0.00     0.000 A
BRANCH 14 15
ATOM     15  C12 UNL     1      -1.673   2.981   0.000  0.00  0.00     0.000 C
ATOM     16  O1  UNL     1      -0.669   1.867   0.000  0.00  0.00     0.000 OA
ATOM     17  N4  UNL     1      -1.209   4.408   0.000  0.00  0.00     0.000 N
ENDBRANCH 14 15
BRANCH 10 9
ATOM      9  N1  UNL     1      -3.000   0.000   0.000  0.00  0.00     0.000 N
BRANCH 9 6
ATOM      3  C3  UNL     1      -5.250  -3.897   0.000  0.00  0.00     0.000 A
ATOM      4  C4  UNL     1      -3.750  -3.897   0.000  0.00  0.00     0.000 A
ATOM      5  C5  UNL     1      -3.000  -2.598   0.000  0.00  0.00     0.000 A
ATOM      6  C6  UNL     1      -3.750  -1.299   0.000  0.00  0.00     0.000 A
ATOM      7  C7  UNL     1      -5.250  -1.299   0.000  0.00  0.00     0.000 A
ATOM      8  C8  UNL     1      -6.000  -2.598   0.000  0.00  0.00     0.000 A
BRANCH 3 2
ATOM      1  C1  UNL     1      -6.750  -6.495   0.000  0.00  0.00     0.000 C
ATOM      2  C2  UNL     1      -6.000  -5.196   0.000  0.00  0.00     0.000 C
ATOM     29  O3  UNL     1      -4.701  -5.946   0.000  0.00  0.00     0.000 OA
BRANCH 2 26
ATOM     26  C19 UNL     1      -7.299  -4.446   0.000  0.00  0.00     0.000 C
ATOM     27  F1  UNL     1      -8.598  -5.196   0.000  0.00  0.00     0.000 F
ATOM     28  F2  UNL     1      -7.299  -2.946   0.000  0.00  0.00     0.000 F
ENDBRANCH 2 26
ENDBRANCH 3 2
ENDBRANCH 9 6
ENDBRANCH 10 9
ENDBRANCH 18 12
TORSDOF 6