REMARK  Name = 
REMARK  2 active torsions:
REMARK  status: ('A' for Active; 'I' for Inactive)
REMARK    1  A    between atoms: _3  and  _35
REMARK    2  A    between atoms: _4  and  _33
ROOT
ATOM      1  C1  UNL     1       3.420  -7.038   0.000  0.00  0.00     0.000 C
ATOM      2  C2  UNL     1       2.538  -5.825   0.000  0.00  0.00     0.000 C
ATOM      3  C3  UNL     1       4.041  -5.787   0.000  0.00  0.00     0.000 C
ATOM      4  C4  UNL     1       4.849  -4.523   0.000  0.00  0.00     0.000 C
ATOM      5  C5  UNL     1       4.158  -3.192   0.000  0.00  0.00     0.000 C
ATOM      6  C6  UNL     1       2.659  -3.125   0.000  0.00  0.00     0.000 C
ATOM      7  O1  UNL     1       3.249  -4.504   0.000  0.00  0.00     0.000 OA
ATOM      8  N1  UNL     1       1.214  -2.726   0.000  0.00  0.00     0.000 N
ATOM      9  C7  UNL     1       0.750  -1.299   0.000  0.00  0.00     0.000 A
ATOM     10  C8  UNL     1       1.500   0.000   0.000  0.00  0.00     0.000 A
ATOM     11  C9  UNL     1       0.750   1.299   0.000  0.00  0.00     0.000 A
ATOM     12  C10 UNL     1      -0.750   1.299   0.000  0.00  0.00     0.000 A
ATOM     13  C11 UNL     1      -1.500   0.000   0.000  0.00  0.00     0.000 A
ATOM     14  C12 UNL     1      -0.750  -1.299   0.000  0.00  0.00     0.000 A
ATOM     15  C13 UNL     1      -1.214  -2.726   0.000  0.00  0.00     0.000 A
ATOM     16  C14 UNL     1      -2.552  -3.569   0.000  0.00  0.00     0.000 A
ATOM     17  C15 UNL     1      -2.619  -5.068   0.000  0.00  0.00     0.000 A
ATOM     18  C16 UNL     1      -1.355  -5.875   0.000  0.00  0.00     0.000 A
ATOM     19  C17 UNL     1      -1.021  -7.338   0.000  0.00  0.00     0.000 A
ATOM     20  C18 UNL     1       0.473  -7.472   0.000  0.00  0.00     0.000 A
ATOM     21  N2  UNL     1       1.062  -6.093   0.000  0.00  0.00     0.000 N
ATOM     22  C19 UNL     1      -0.067  -5.106   0.000  0.00  0.00     0.000 A
ATOM     23  C20 UNL     1      -0.000  -3.607   0.000  0.00  0.00     0.000 A
ATOM     24  C21 UNL     1       1.103  -8.833   0.000  0.00  0.00     0.000 A
ATOM     25  C22 UNL     1       0.240 -10.060   0.000  0.00  0.00     0.000 A
ATOM     26  C23 UNL     1      -1.254  -9.925   0.000  0.00  0.00     0.000 A
ATOM     27  C24 UNL     1      -1.885  -8.564   0.000  0.00  0.00     0.000 A
ATOM     28  O2  UNL     1       2.597  -8.967   0.000  0.00  0.00     0.000 OA
ATOM     29  C25 UNL     1      -4.065  -5.467   0.000  0.00  0.00     0.000 C
ATOM     30  N3  UNL     1      -4.891  -4.215   0.000  0.00  0.00     0.000 N
ATOM     31  C26 UNL     1      -3.956  -3.042   0.000  0.00  0.00     0.000 C
ATOM     32  O3  UNL     1      -4.355  -1.596   0.000  0.00  0.00     0.000 OA
ENDROOT
BRANCH 4 33
ATOM     33  N4  UNL     1       6.347  -4.591   0.000  0.00  0.00     0.000 N
ATOM     34  C27 UNL     1       7.038  -5.922   0.000  0.00  0.00     0.000 C
ENDBRANCH 4 33
BRANCH 3 35
ATOM     35  O4  UNL     1       4.732  -7.119   0.000  0.00  0.00     0.000 OA
ATOM     36  C28 UNL     1       3.925  -8.383   0.000  0.00  0.00     0.000 C
ENDBRANCH 3 35
TORSDOF 2