REMARK  Name = 
REMARK  3 active torsions:
REMARK  status: ('A' for Active; 'I' for Inactive)
REMARK    1  A    between atoms: _8  and  _12
REMARK    2  A    between atoms: _12  and  _13
REMARK    3  A    between atoms: _21  and  _22
ROOT
ATOM      1  C1  UNL     1       0.970  -2.065   0.000  0.00  0.00     0.000 C
ATOM      2  C2  UNL     1       0.750  -1.299   0.000  0.00  0.00     0.000 C
ATOM      3  C3  UNL     1       1.500   0.000   0.000  0.00  0.00     0.000 C
ATOM      4  C4  UNL     1       0.750   1.299   0.000  0.00  0.00     0.000 C
ATOM      5  C5  UNL     1      -0.750   1.299   0.000  0.00  0.00     0.000 C
ATOM      6  C6  UNL     1      -1.500   0.000   0.000  0.00  0.00     0.000 C
ATOM      7  C7  UNL     1      -0.750  -1.299   0.000  0.00  0.00     0.000 C
ATOM      8  C8  UNL     1       1.701  -0.750   0.000  0.00  0.00     0.000 C
ATOM      9  C9  UNL     1       3.000  -0.000   0.000  0.00  0.00     0.000 C
ATOM     10  C10 UNL     1       2.250   1.299   0.000  0.00  0.00     0.000 C
ATOM     11  C11 UNL     1       2.250  -1.299   0.000  0.00  0.00     0.000 C
ENDROOT
BRANCH 8 12
ATOM     12  N1  UNL     1       1.701  -2.250   0.000  0.00  0.00     0.000 N
BRANCH 12 13
ATOM     13  C12 UNL     1       3.000  -3.000   0.000  0.00  0.00     0.000 A
ATOM     14  C13 UNL     1       3.000  -4.500   0.000  0.00  0.00     0.000 A
ATOM     15  C14 UNL     1       1.885  -5.504   0.000  0.00  0.00     0.000 A
ATOM     16  C15 UNL     1       2.495  -6.874   0.000  0.00  0.00     0.000 A
ATOM     17  N2  UNL     1       3.987  -6.717   0.000  0.00  0.00     0.000 N
ATOM     18  C16 UNL     1       4.299  -5.250   0.000  0.00  0.00     0.000 A
ATOM     19  N3  UNL     1       5.598  -4.500   0.000  0.00  0.00     0.000 NA
ATOM     20  C17 UNL     1       5.598  -3.000   0.000  0.00  0.00     0.000 A
ATOM     21  C18 UNL     1       4.299  -2.250   0.000  0.00  0.00     0.000 A
BRANCH 21 22
ATOM     22  C19 UNL     1       4.299  -0.750   0.000  0.00  0.00     0.000 C
ATOM     23  O1  UNL     1       3.220   0.292   0.000  0.00  0.00     0.000 OA
ATOM     24  N4  UNL     1       5.598  -0.000   0.000  0.00  0.00     0.000 N
ENDBRANCH 21 22
ENDBRANCH 12 13
ENDBRANCH 8 12
TORSDOF 3