REMARK  Name = 
REMARK  4 active torsions:
REMARK  status: ('A' for Active; 'I' for Inactive)
REMARK    1  A    between atoms: _5  and  _9
REMARK    2  A    between atoms: _11  and  _25
REMARK    3  A    between atoms: _12  and  _14
REMARK    4  A    between atoms: _14  and  _15
ROOT
ATOM     15  C10 UNL     1      -0.477   7.074   0.000  0.00  0.00     0.000 A
ATOM     16  C11 UNL     1       0.736   6.192   0.000  0.00  0.00     0.000 A
ATOM     17  N5  UNL     1       2.106   6.802   0.000  0.00  0.00     0.000 NA
ATOM     18  C12 UNL     1       2.263   8.294   0.000  0.00  0.00     0.000 A
ATOM     19  C13 UNL     1       1.050   9.176   0.000  0.00  0.00     0.000 A
ATOM     20  C14 UNL     1      -0.321   8.566   0.000  0.00  0.00     0.000 A
ATOM     21  C15 UNL     1       3.634   8.904   0.000  0.00  0.00     0.000 C
ATOM     22  F1  UNL     1       5.004   9.514   0.000  0.00  0.00     0.000 F
ATOM     23  F2  UNL     1       4.244   7.534   0.000  0.00  0.00     0.000 F
ATOM     24  F3  UNL     1       3.023  10.275   0.000  0.00  0.00     0.000 F
ENDROOT
BRANCH 15 14
ATOM     14  N4  UNL     1      -1.848   6.464   0.000  0.00  0.00     0.000 N
BRANCH 14 12
ATOM      9  N2  UNL     1      -1.500   2.598   0.000  0.00  0.00     0.000 N
ATOM     10  C7  UNL     1      -2.992   2.755   0.000  0.00  0.00     0.000 A
ATOM     11  C8  UNL     1      -3.304   4.222   0.000  0.00  0.00     0.000 A
ATOM     12  C9  UNL     1      -2.005   4.972   0.000  0.00  0.00     0.000 A
ATOM     13  N3  UNL     1      -0.890   3.968   0.000  0.00  0.00     0.000 NA
BRANCH 11 25
ATOM     25  C16 UNL     1      -4.674   4.832   0.000  0.00  0.00     0.000 C
ATOM     26  O2  UNL     1      -5.888   3.950   0.000  0.00  0.00     0.000 OA
ATOM     27  N6  UNL     1      -4.831   6.324   0.000  0.00  0.00     0.000 N
ENDBRANCH 11 25
BRANCH 9 5
ATOM      1  C1  UNL     1       1.500   0.000   0.000  0.00  0.00     0.000 C
ATOM      2  C2  UNL     1       0.750  -1.299   0.000  0.00  0.00     0.000 C
ATOM      3  O1  UNL     1      -0.750  -1.299   0.000  0.00  0.00     0.000 OA
ATOM      4  C3  UNL     1      -1.500   0.000   0.000  0.00  0.00     0.000 C
ATOM      5  C4  UNL     1      -0.750   1.299   0.000  0.00  0.00     0.000 C
ATOM      6  C5  UNL     1       0.750   1.299   0.000  0.00  0.00     0.000 C
ATOM      7  C6  UNL     1       1.500   2.598   0.000  0.00  0.00     0.000 C
ATOM      8  N1  UNL     1       2.250   3.897   0.000  0.00  0.00     0.000 N
ENDBRANCH 9 5
ENDBRANCH 14 12
ENDBRANCH 15 14
TORSDOF 4