REMARK  Name = 
REMARK  7 active torsions:
REMARK  status: ('A' for Active; 'I' for Inactive)
REMARK    1  A    between atoms: _2  and  _6
REMARK    2  A    between atoms: _6  and  _7
REMARK    3  A    between atoms: _10  and  _28
REMARK    4  A    between atoms: _11  and  _13
REMARK    5  A    between atoms: _13  and  _14
REMARK    6  A    between atoms: _18  and  _22
REMARK    7  A    between atoms: _19  and  _20
ROOT
ATOM      7  C5  UNL     1       0.750  -1.299   0.000  0.00  0.00     0.000 A
ATOM      8  N2  UNL     1       1.500   0.000   0.000  0.00  0.00     0.000 NA
ATOM      9  N3  UNL     1       0.750   1.299   0.000  0.00  0.00     0.000 NA
ATOM     10  C6  UNL     1      -0.750   1.299   0.000  0.00  0.00     0.000 A
ATOM     11  C7  UNL     1      -1.500   0.000   0.000  0.00  0.00     0.000 A
ATOM     12  C8  UNL     1      -0.750  -1.299   0.000  0.00  0.00     0.000 A
ENDROOT
BRANCH 10 28
ATOM     28  C19 UNL     1      -1.500   2.598   0.000  0.00  0.00     0.000 C
ATOM     29  O3  UNL     1      -3.000   2.598   0.000  0.00  0.00     0.000 OA
ATOM     30  N8  UNL     1      -0.750   3.897   0.000  0.00  0.00     0.000 N
ATOM     31  C20 UNL     1      -1.500   5.196   0.000  0.00  0.00     0.000 C
ENDBRANCH 10 28
BRANCH 7 6
ATOM      6  N1  UNL     1       1.500  -2.598   0.000  0.00  0.00     0.000 N
BRANCH 6 2
ATOM      1  C1  UNL     1      -0.549  -3.147   0.000  0.00  0.00     0.000 C
ATOM      2  C2  UNL     1       0.750  -3.897   0.000  0.00  0.00     0.000 C
ATOM      3  C3  UNL     1       2.049  -4.647   0.000  0.00  0.00     0.000 C
ATOM      4  O1  UNL     1       1.299  -5.946   0.000  0.00  0.00     0.000 OA
ATOM      5  C4  UNL     1       0.000  -5.196   0.000  0.00  0.00     0.000 C
ENDBRANCH 6 2
ENDBRANCH 7 6
BRANCH 11 13
ATOM     13  N4  UNL     1      -3.000   0.000   0.000  0.00  0.00     0.000 N
BRANCH 13 14
ATOM     14  C9  UNL     1      -3.750  -1.299   0.000  0.00  0.00     0.000 A
ATOM     15  C10 UNL     1      -3.000  -2.598   0.000  0.00  0.00     0.000 A
ATOM     16  C11 UNL     1      -3.750  -3.897   0.000  0.00  0.00     0.000 A
ATOM     17  C12 UNL     1      -5.250  -3.897   0.000  0.00  0.00     0.000 A
ATOM     18  C13 UNL     1      -6.000  -2.598   0.000  0.00  0.00     0.000 A
ATOM     19  C14 UNL     1      -5.250  -1.299   0.000  0.00  0.00     0.000 A
BRANCH 18 22
ATOM     22  C16 UNL     1      -7.500  -2.598   0.000  0.00  0.00     0.000 A
ATOM     23  N5  UNL     1      -8.382  -1.385   0.000  0.00  0.00     0.000 NA
ATOM     24  N6  UNL     1      -9.808  -1.848   0.000  0.00  0.00     0.000 N
ATOM     25  C17 UNL     1      -9.808  -3.348   0.000  0.00  0.00     0.000 A
ATOM     26  N7  UNL     1      -8.382  -3.812   0.000  0.00  0.00     0.000 NA
ATOM     27  C18 UNL     1     -11.022  -0.966   0.000  0.00  0.00     0.000 C
ENDBRANCH 18 22
BRANCH 19 20
ATOM     20  O2  UNL     1      -6.000  -0.000   0.000  0.00  0.00     0.000 OA
ATOM     21  C15 UNL     1      -5.250   1.299   0.000  0.00  0.00     0.000 C
ENDBRANCH 19 20
ENDBRANCH 13 14
ENDBRANCH 11 13
TORSDOF 7