REMARK  Name = 
REMARK  4 active torsions:
REMARK  status: ('A' for Active; 'I' for Inactive)
REMARK    1  A    between atoms: _7  and  _8
REMARK    2  A    between atoms: _10  and  _22
REMARK    3  A    between atoms: _11  and  _13
REMARK    4  A    between atoms: _13  and  _14
ROOT
ATOM     14  C10 UNL     1       5.888   3.950   0.000  0.00  0.00     0.000 A
ATOM     15  C11 UNL     1       5.731   2.459   0.000  0.00  0.00     0.000 A
ATOM     16  C12 UNL     1       6.944   1.577   0.000  0.00  0.00     0.000 A
ATOM     17  C13 UNL     1       8.315   2.187   0.000  0.00  0.00     0.000 A
ATOM     18  C14 UNL     1       8.471   3.679   0.000  0.00  0.00     0.000 A
ATOM     19  C15 UNL     1       7.258   4.561   0.000  0.00  0.00     0.000 A
ATOM     20  C16 UNL     1       9.528   1.306   0.000  0.00  0.00     0.000 C
ATOM     21  N4  UNL     1      10.742   0.424   0.000  0.00  0.00     0.000 N
ENDROOT
BRANCH 14 13
ATOM     13  N3  UNL     1       4.674   4.832   0.000  0.00  0.00     0.000 N
BRANCH 13 11
ATOM      8  N1  UNL     1       1.500   2.598   0.000  0.00  0.00     0.000 N
ATOM      9  C7  UNL     1       0.890   3.968   0.000  0.00  0.00     0.000 A
ATOM     10  C8  UNL     1       2.005   4.972   0.000  0.00  0.00     0.000 A
ATOM     11  C9  UNL     1       3.304   4.222   0.000  0.00  0.00     0.000 A
ATOM     12  N2  UNL     1       2.992   2.755   0.000  0.00  0.00     0.000 NA
BRANCH 10 22
ATOM     22  C17 UNL     1       1.848   6.464   0.000  0.00  0.00     0.000 C
ATOM     23  O2  UNL     1       0.477   7.074   0.000  0.00  0.00     0.000 OA
ATOM     24  N5  UNL     1       3.061   7.346   0.000  0.00  0.00     0.000 N
ENDBRANCH 10 22
BRANCH 8 7
ATOM      1  C1  UNL     1       3.000   0.000   0.000  0.00  0.00     0.000 C
ATOM      2  C2  UNL     1       1.500   0.000   0.000  0.00  0.00     0.000 C
ATOM      3  C3  UNL     1       0.750  -1.299   0.000  0.00  0.00     0.000 C
ATOM      4  C4  UNL     1      -0.750  -1.299   0.000  0.00  0.00     0.000 C
ATOM      5  O1  UNL     1      -1.500   0.000   0.000  0.00  0.00     0.000 OA
ATOM      6  C5  UNL     1      -0.750   1.299   0.000  0.00  0.00     0.000 C
ATOM      7  C6  UNL     1       0.750   1.299   0.000  0.00  0.00     0.000 C
ENDBRANCH 8 7
ENDBRANCH 13 11
ENDBRANCH 14 13
TORSDOF 4