REMARK  Name = 
REMARK  5 active torsions:
REMARK  status: ('A' for Active; 'I' for Inactive)
REMARK    1  A    between atoms: _2  and  _6
REMARK    2  A    between atoms: _9  and  _12
REMARK    3  A    between atoms: _12  and  _13
REMARK    4  A    between atoms: _15  and  _21
REMARK    5  A    between atoms: _17  and  _18
ROOT
ATOM     21  C15 UNL     1      -0.402   7.763   0.000  0.00  0.00     0.000 C
ATOM     22  C16 UNL     1       0.811   8.645   0.000  0.00  0.00     0.000 C
ATOM     23  O3  UNL     1       0.655  10.136   0.000  0.00  0.00     0.000 OA
ATOM     24  C17 UNL     1      -0.716  10.746   0.000  0.00  0.00     0.000 C
ATOM     25  C18 UNL     1      -1.929   9.865   0.000  0.00  0.00     0.000 C
ATOM     26  C19 UNL     1      -1.772   8.373   0.000  0.00  0.00     0.000 C
ATOM     27  C20 UNL     1      -2.986   7.491   0.000  0.00  0.00     0.000 C
ATOM     28  N5  UNL     1      -4.199   6.610   0.000  0.00  0.00     0.000 N
ENDROOT
BRANCH 21 15
ATOM     13  C11 UNL     1      -0.750   3.897   0.000  0.00  0.00     0.000 A
ATOM     14  N2  UNL     1      -1.360   5.267   0.000  0.00  0.00     0.000 NA
ATOM     15  N3  UNL     1      -0.245   6.271   0.000  0.00  0.00     0.000 N
ATOM     16  C12 UNL     1       1.054   5.521   0.000  0.00  0.00     0.000 A
ATOM     17  C13 UNL     1       0.742   4.054   0.000  0.00  0.00     0.000 A
BRANCH 17 18
ATOM     18  C14 UNL     1       1.746   2.939   0.000  0.00  0.00     0.000 C
ATOM     19  O2  UNL     1       3.213   3.251   0.000  0.00  0.00     0.000 OA
ATOM     20  N4  UNL     1       1.282   1.513   0.000  0.00  0.00     0.000 N
ENDBRANCH 17 18
BRANCH 13 12
ATOM     12  N1  UNL     1      -1.500   2.598   0.000  0.00  0.00     0.000 N
BRANCH 12 9
ATOM      6  C5  UNL     1      -6.000   2.598   0.000  0.00  0.00     0.000 A
ATOM      7  C6  UNL     1      -5.250   3.897   0.000  0.00  0.00     0.000 A
ATOM      8  C7  UNL     1      -3.750   3.897   0.000  0.00  0.00     0.000 A
ATOM      9  C8  UNL     1      -3.000   2.598   0.000  0.00  0.00     0.000 A
ATOM     10  C9  UNL     1      -3.750   1.299   0.000  0.00  0.00     0.000 A
ATOM     11  C10 UNL     1      -5.250   1.299   0.000  0.00  0.00     0.000 A
BRANCH 6 2
ATOM      1  C1  UNL     1      -7.500   4.098   0.000  0.00  0.00     0.000 C
ATOM      2  C2  UNL     1      -7.500   2.598   0.000  0.00  0.00     0.000 C
ATOM      3  C3  UNL     1      -7.500   1.098   0.000  0.00  0.00     0.000 C
ATOM      4  O1  UNL     1      -9.000   1.098   0.000  0.00  0.00     0.000 OA
ATOM      5  C4  UNL     1      -9.000   2.598   0.000  0.00  0.00     0.000 C
ENDBRANCH 6 2
ENDBRANCH 12 9
ENDBRANCH 13 12
ENDBRANCH 21 15
TORSDOF 5