REMARK  Name = 
REMARK  2 active torsions:
REMARK  status: ('A' for Active; 'I' for Inactive)
REMARK    1  A    between atoms: _3  and  _36
REMARK    2  A    between atoms: _4  and  _34
ROOT
ATOM      1  C1  UNL     1      -3.646  -1.995   0.000  0.00  0.00     0.000 C
ATOM      2  C2  UNL     1      -2.659  -3.125   0.000  0.00  0.00     0.000 C
ATOM      3  C3  UNL     1      -4.153  -3.297   0.000  0.00  0.00     0.000 C
ATOM      4  C4  UNL     1      -4.844  -4.628   0.000  0.00  0.00     0.000 C
ATOM      5  C5  UNL     1      -4.037  -5.892   0.000  0.00  0.00     0.000 C
ATOM      6  C6  UNL     1      -2.538  -5.825   0.000  0.00  0.00     0.000 C
ATOM      7  O1  UNL     1      -3.249  -4.504   0.000  0.00  0.00     0.000 OA
ATOM      8  N1  UNL     1      -1.062  -6.093   0.000  0.00  0.00     0.000 N
ATOM      9  C7  UNL     1      -0.473  -7.472   0.000  0.00  0.00     0.000 A
ATOM     10  C8  UNL     1       1.021  -7.338   0.000  0.00  0.00     0.000 A
ATOM     11  C9  UNL     1       1.885  -8.564   0.000  0.00  0.00     0.000 A
ATOM     12  C10 UNL     1       1.254  -9.925   0.000  0.00  0.00     0.000 A
ATOM     13  C11 UNL     1      -0.240 -10.060   0.000  0.00  0.00     0.000 A
ATOM     14  C12 UNL     1      -1.103  -8.833   0.000  0.00  0.00     0.000 A
ATOM     15  C13 UNL     1       2.118 -11.152   0.000  0.00  0.00     0.000 C
ATOM     16  C14 UNL     1       2.981 -12.378   0.000  0.00  0.00     0.000 C
ATOM     17  C15 UNL     1       1.355  -5.875   0.000  0.00  0.00     0.000 A
ATOM     18  C16 UNL     1       2.612  -4.915   0.000  0.00  0.00     0.000 A
ATOM     19  C17 UNL     1       2.545  -3.417   0.000  0.00  0.00     0.000 A
ATOM     20  C18 UNL     1       1.214  -2.726   0.000  0.00  0.00     0.000 A
ATOM     21  C19 UNL     1       0.750  -1.299   0.000  0.00  0.00     0.000 A
ATOM     22  C20 UNL     1       1.500   0.000   0.000  0.00  0.00     0.000 A
ATOM     23  C21 UNL     1       0.750   1.299   0.000  0.00  0.00     0.000 A
ATOM     24  C22 UNL     1      -0.750   1.299   0.000  0.00  0.00     0.000 A
ATOM     25  C23 UNL     1      -1.500   0.000   0.000  0.00  0.00     0.000 A
ATOM     26  C24 UNL     1      -0.750  -1.299   0.000  0.00  0.00     0.000 A
ATOM     27  N2  UNL     1      -1.214  -2.726   0.000  0.00  0.00     0.000 N
ATOM     28  C25 UNL     1       0.000  -3.607   0.000  0.00  0.00     0.000 A
ATOM     29  C26 UNL     1       0.067  -5.106   0.000  0.00  0.00     0.000 A
ATOM     30  C27 UNL     1       3.949  -2.889   0.000  0.00  0.00     0.000 C
ATOM     31  N3  UNL     1       4.885  -4.062   0.000  0.00  0.00     0.000 N
ATOM     32  C28 UNL     1       4.058  -5.314   0.000  0.00  0.00     0.000 C
ATOM     33  O2  UNL     1       4.585  -6.718   0.000  0.00  0.00     0.000 OA
ENDROOT
BRANCH 4 34
ATOM     34  N4  UNL     1      -6.343  -4.695   0.000  0.00  0.00     0.000 N
ATOM     35  C29 UNL     1      -7.150  -3.431   0.000  0.00  0.00     0.000 C
ENDBRANCH 4 34
BRANCH 3 36
ATOM     36  O3  UNL     1      -4.961  -2.033   0.000  0.00  0.00     0.000 OA
ATOM     37  C30 UNL     1      -4.270  -0.701   0.000  0.00  0.00     0.000 C
ENDBRANCH 3 36
TORSDOF 2