REMARK  Name = 
REMARK  6 active torsions:
REMARK  status: ('A' for Active; 'I' for Inactive)
REMARK    1  A    between atoms: _2  and  _3
REMARK    2  A    between atoms: _6  and  _9
REMARK    3  A    between atoms: _9  and  _10
REMARK    4  A    between atoms: _10  and  _11
REMARK    5  A    between atoms: _11  and  _12
REMARK    6  A    between atoms: _15  and  _18
ROOT
ATOM     18  C16 UNL     1      -3.639   1.597   0.000  0.00  0.00     0.000 A
ATOM     19  C17 UNL     1      -2.147   1.754   0.000  0.00  0.00     0.000 A
ATOM     20  C18 UNL     1      -1.032   0.750   0.000  0.00  0.00     0.000 A
ATOM     21  C19 UNL     1       0.394   1.214   0.000  0.00  0.00     0.000 A
ATOM     22  N2  UNL     1       1.276   0.000   0.000  0.00  0.00     0.000 N
ATOM     23  C20 UNL     1       0.394  -1.214   0.000  0.00  0.00     0.000 A
ATOM     24  C21 UNL     1      -1.032  -0.750   0.000  0.00  0.00     0.000 A
ATOM     25  N3  UNL     1       0.706   2.681   0.000  0.00  0.00     0.000 NA
ATOM     26  C22 UNL     1      -0.409   3.684   0.000  0.00  0.00     0.000 A
ATOM     27  N4  UNL     1      -1.835   3.221   0.000  0.00  0.00     0.000 N
ATOM     28  N5  UNL     1      -3.134   3.971   0.000  0.00  0.00     0.000 NA
ATOM     29  N6  UNL     1      -4.249   2.967   0.000  0.00  0.00     0.000 NA
ENDROOT
BRANCH 18 15
ATOM     12  C10 UNL     1      -5.889  -2.300   0.000  0.00  0.00     0.000 C
ATOM     13  C11 UNL     1      -4.389  -2.300   0.000  0.00  0.00     0.000 C
ATOM     14  C12 UNL     1      -3.639  -1.001   0.000  0.00  0.00     0.000 C
ATOM     15  C13 UNL     1      -4.389   0.298   0.000  0.00  0.00     0.000 C
ATOM     16  C14 UNL     1      -5.889   0.298   0.000  0.00  0.00     0.000 C
ATOM     17  C15 UNL     1      -6.639  -1.001   0.000  0.00  0.00     0.000 C
BRANCH 12 11
ATOM     11  C9  UNL     1      -6.639  -3.599   0.000  0.00  0.00     0.000 C
BRANCH 11 10
ATOM     10  N1  UNL     1      -8.139  -3.599   0.000  0.00  0.00     0.000 N
BRANCH 10 9
ATOM      9  C8  UNL     1      -8.889  -4.898   0.000  0.00  0.00     0.000 C
BRANCH 9 6
ATOM      3  C2  UNL     1     -13.389  -4.898   0.000  0.00  0.00     0.000 A
ATOM      4  C3  UNL     1     -12.639  -3.599   0.000  0.00  0.00     0.000 A
ATOM      5  C4  UNL     1     -11.139  -3.599   0.000  0.00  0.00     0.000 A
ATOM      6  C5  UNL     1     -10.389  -4.898   0.000  0.00  0.00     0.000 A
ATOM      7  C6  UNL     1     -11.139  -6.197   0.000  0.00  0.00     0.000 A
ATOM      8  C7  UNL     1     -12.639  -6.197   0.000  0.00  0.00     0.000 A
BRANCH 3 2
ATOM      1  C1  UNL     1     -15.639  -3.599   0.000  0.00  0.00     0.000 C
ATOM      2  O1  UNL     1     -14.889  -4.898   0.000  0.00  0.00     0.000 OA
ENDBRANCH 3 2
ENDBRANCH 9 6
ENDBRANCH 10 9
ENDBRANCH 11 10
ENDBRANCH 12 11
ENDBRANCH 18 15
TORSDOF 6