REMARK  Name = 
REMARK  4 active torsions:
REMARK  status: ('A' for Active; 'I' for Inactive)
REMARK    1  A    between atoms: _6  and  _24
REMARK    2  A    between atoms: _10  and  _11
REMARK    3  A    between atoms: _11  and  _12
REMARK    4  A    between atoms: _20  and  _21
ROOT
ATOM      1  C1  UNL     1       1.500   0.000   0.000  0.00  0.00     0.000 C
ATOM      2  C2  UNL     1       0.750  -1.299   0.000  0.00  0.00     0.000 C
ATOM      3  C3  UNL     1       2.250  -1.299   0.000  0.00  0.00     0.000 C
ATOM      4  C4  UNL     1       3.000  -0.000   0.000  0.00  0.00     0.000 C
ATOM      5  C5  UNL     1      -0.201   0.750   0.000  0.00  0.00     0.000 C
ATOM      6  C6  UNL     1      -1.500   0.000   0.000  0.00  0.00     0.000 C
ATOM      7  C7  UNL     1      -0.750  -1.299   0.000  0.00  0.00     0.000 C
ATOM      8  C8  UNL     1      -0.750   1.299   0.000  0.00  0.00     0.000 C
ATOM      9  C9  UNL     1       0.750   1.299   0.000  0.00  0.00     0.000 C
ATOM     10  C10 UNL     1       2.250   1.299   0.000  0.00  0.00     0.000 C
ENDROOT
BRANCH 6 24
ATOM     24  C19 UNL     1      -3.000   0.000   0.000  0.00  0.00     0.000 C
ATOM     25  O2  UNL     1      -3.750  -1.299   0.000  0.00  0.00     0.000 OA
ATOM     26  N5  UNL     1      -3.750   1.299   0.000  0.00  0.00     0.000 N
ENDBRANCH 6 24
BRANCH 10 11
ATOM     11  N1  UNL     1       3.000   2.598   0.000  0.00  0.00     0.000 N
BRANCH 11 12
ATOM     12  C11 UNL     1       4.500   2.598   0.000  0.00  0.00     0.000 A
ATOM     13  C12 UNL     1       5.250   1.299   0.000  0.00  0.00     0.000 A
ATOM     14  C13 UNL     1       4.787  -0.128   0.000  0.00  0.00     0.000 A
ATOM     15  C14 UNL     1       6.000  -1.009   0.000  0.00  0.00     0.000 A
ATOM     16  N2  UNL     1       7.213  -0.128   0.000  0.00  0.00     0.000 N
ATOM     17  C15 UNL     1       6.750   1.299   0.000  0.00  0.00     0.000 A
ATOM     18  N3  UNL     1       7.500   2.598   0.000  0.00  0.00     0.000 NA
ATOM     19  C16 UNL     1       6.750   3.897   0.000  0.00  0.00     0.000 A
ATOM     20  C17 UNL     1       5.250   3.897   0.000  0.00  0.00     0.000 A
BRANCH 20 21
ATOM     21  C18 UNL     1       4.500   5.196   0.000  0.00  0.00     0.000 C
ATOM     22  O1  UNL     1       5.250   6.495   0.000  0.00  0.00     0.000 OA
ATOM     23  N4  UNL     1       3.000   5.196   0.000  0.00  0.00     0.000 N
ENDBRANCH 20 21
ENDBRANCH 11 12
ENDBRANCH 10 11
TORSDOF 4