REMARK  Name = 
REMARK  5 active torsions:
REMARK  status: ('A' for Active; 'I' for Inactive)
REMARK    1  A    between atoms: _7  and  _10
REMARK    2  A    between atoms: _10  and  _11
REMARK    3  A    between atoms: _15  and  _17
REMARK    4  A    between atoms: _19  and  _22
REMARK    5  A    between atoms: _22  and  _23
ROOT
ATOM      1  C1  UNL     1       1.276   0.000   0.000  0.00  0.00     0.000 C
ATOM      2  C2  UNL     1       0.394   1.214   0.000  0.00  0.00     0.000 C
ATOM      3  N1  UNL     1      -1.032   0.750   0.000  0.00  0.00     0.000 N
ATOM      4  C3  UNL     1      -1.032  -0.750   0.000  0.00  0.00     0.000 A
ATOM      5  C4  UNL     1       0.394  -1.214   0.000  0.00  0.00     0.000 A
ATOM      6  C5  UNL     1       0.706  -2.681   0.000  0.00  0.00     0.000 A
ATOM      7  C6  UNL     1      -0.409  -3.684   0.000  0.00  0.00     0.000 A
ATOM      8  C7  UNL     1      -1.835  -3.221   0.000  0.00  0.00     0.000 A
ATOM      9  C8  UNL     1      -2.147  -1.754   0.000  0.00  0.00     0.000 A
ENDROOT
BRANCH 7 10
ATOM     10  N2  UNL     1      -0.097  -5.152   0.000  0.00  0.00     0.000 N
BRANCH 10 11
ATOM     11  C9  UNL     1      -1.211  -6.155   0.000  0.00  0.00     0.000 A
ATOM     12  N3  UNL     1      -2.638  -5.692   0.000  0.00  0.00     0.000 NA
ATOM     13  C10 UNL     1      -3.753  -6.696   0.000  0.00  0.00     0.000 A
ATOM     14  C11 UNL     1      -3.441  -8.163   0.000  0.00  0.00     0.000 A
ATOM     15  C12 UNL     1      -2.014  -8.626   0.000  0.00  0.00     0.000 A
ATOM     16  N4  UNL     1      -0.899  -7.623   0.000  0.00  0.00     0.000 NA
ATOM     26  F1  UNL     1      -4.556  -9.166   0.000  0.00  0.00     0.000 F
BRANCH 15 17
ATOM     17  C13 UNL     1      -1.702 -10.094   0.000  0.00  0.00     0.000 A
ATOM     18  C14 UNL     1      -0.332 -10.704   0.000  0.00  0.00     0.000 A
ATOM     19  N5  UNL     1      -0.489 -12.195   0.000  0.00  0.00     0.000 N
ATOM     20  N6  UNL     1      -1.956 -12.507   0.000  0.00  0.00     0.000 NA
ATOM     21  C15 UNL     1      -2.706 -11.208   0.000  0.00  0.00     0.000 A
BRANCH 19 22
ATOM     22  C16 UNL     1       0.626 -13.199   0.000  0.00  0.00     0.000 C
BRANCH 22 23
ATOM     23  C17 UNL     1       0.314 -14.666   0.000  0.00  0.00     0.000 C
ATOM     24  C18 UNL     1       1.429 -15.670   0.000  0.00  0.00     0.000 C
ATOM     25  N7  UNL     1       2.543 -16.674   0.000  0.00  0.00     0.000 N
ENDBRANCH 22 23
ENDBRANCH 19 22
ENDBRANCH 15 17
ENDBRANCH 10 11
ENDBRANCH 7 10
TORSDOF 5