REMARK  Name = 
REMARK  4 active torsions:
REMARK  status: ('A' for Active; 'I' for Inactive)
REMARK    1  A    between atoms: _2  and  _4
REMARK    2  A    between atoms: _10  and  _14
REMARK    3  A    between atoms: _14  and  _15
REMARK    4  A    between atoms: _23  and  _24
ROOT
ATOM      4  C3  UNL     1       0.750  -1.299   0.000  0.00  0.00     0.000 C
ATOM      5  C4  UNL     1       1.500   0.000   0.000  0.00  0.00     0.000 C
ATOM      6  C5  UNL     1       0.750   1.299   0.000  0.00  0.00     0.000 C
ATOM      7  C6  UNL     1      -0.750   1.299   0.000  0.00  0.00     0.000 C
ATOM      8  C7  UNL     1      -1.500   0.000   0.000  0.00  0.00     0.000 C
ATOM      9  C8  UNL     1      -0.750  -1.299   0.000  0.00  0.00     0.000 C
ATOM     10  C9  UNL     1       1.701  -0.750   0.000  0.00  0.00     0.000 C
ATOM     11  C10 UNL     1       3.000  -0.000   0.000  0.00  0.00     0.000 C
ATOM     12  C11 UNL     1       2.250   1.299   0.000  0.00  0.00     0.000 C
ATOM     13  C12 UNL     1       2.250  -1.299   0.000  0.00  0.00     0.000 C
ENDROOT
BRANCH 4 2
ATOM      1  C1  UNL     1       0.750  -3.897   0.000  0.00  0.00     0.000 C
ATOM      2  N1  UNL     1       1.500  -2.598   0.000  0.00  0.00     0.000 N
ATOM      3  C2  UNL     1       2.955  -2.961   0.000  0.00  0.00     0.000 C
ENDBRANCH 4 2
BRANCH 10 14
ATOM     14  N2  UNL     1       1.701  -2.250   0.000  0.00  0.00     0.000 N
BRANCH 14 15
ATOM     15  C13 UNL     1       3.000  -3.000   0.000  0.00  0.00     0.000 A
ATOM     16  C14 UNL     1       3.000  -4.500   0.000  0.00  0.00     0.000 A
ATOM     17  C15 UNL     1       1.885  -5.504   0.000  0.00  0.00     0.000 A
ATOM     18  C16 UNL     1       2.495  -6.874   0.000  0.00  0.00     0.000 A
ATOM     19  N3  UNL     1       3.987  -6.717   0.000  0.00  0.00     0.000 N
ATOM     20  C17 UNL     1       4.299  -5.250   0.000  0.00  0.00     0.000 A
ATOM     21  N4  UNL     1       5.598  -4.500   0.000  0.00  0.00     0.000 NA
ATOM     22  C18 UNL     1       5.598  -3.000   0.000  0.00  0.00     0.000 A
ATOM     23  C19 UNL     1       4.299  -2.250   0.000  0.00  0.00     0.000 A
BRANCH 23 24
ATOM     24  C20 UNL     1       4.299  -0.750   0.000  0.00  0.00     0.000 C
ATOM     25  O1  UNL     1       3.220   0.292   0.000  0.00  0.00     0.000 OA
ATOM     26  N5  UNL     1       5.598  -0.000   0.000  0.00  0.00     0.000 N
ENDBRANCH 23 24
ENDBRANCH 14 15
ENDBRANCH 10 14
TORSDOF 4