REMARK  Name = 
REMARK  5 active torsions:
REMARK  status: ('A' for Active; 'I' for Inactive)
REMARK    1  A    between atoms: _3  and  _4
REMARK    2  A    between atoms: _7  and  _10
REMARK    3  A    between atoms: _10  and  _11
REMARK    4  A    between atoms: _13  and  _19
REMARK    5  A    between atoms: _15  and  _16
ROOT
ATOM     19  C14 UNL     1      -0.402   7.763   0.000  0.00  0.00     0.000 C
ATOM     20  C15 UNL     1       0.811   8.645   0.000  0.00  0.00     0.000 C
ATOM     21  O2  UNL     1       0.655  10.136   0.000  0.00  0.00     0.000 OA
ATOM     22  C16 UNL     1      -0.716  10.746   0.000  0.00  0.00     0.000 C
ATOM     23  C17 UNL     1      -1.929   9.865   0.000  0.00  0.00     0.000 C
ATOM     24  C18 UNL     1      -1.772   8.373   0.000  0.00  0.00     0.000 C
ATOM     25  C19 UNL     1      -2.986   7.491   0.000  0.00  0.00     0.000 C
ATOM     26  N5  UNL     1      -4.199   6.610   0.000  0.00  0.00     0.000 N
ENDROOT
BRANCH 19 13
ATOM     11  C10 UNL     1      -0.750   3.897   0.000  0.00  0.00     0.000 A
ATOM     12  N2  UNL     1      -1.360   5.267   0.000  0.00  0.00     0.000 NA
ATOM     13  N3  UNL     1      -0.245   6.271   0.000  0.00  0.00     0.000 N
ATOM     14  C11 UNL     1       1.054   5.521   0.000  0.00  0.00     0.000 A
ATOM     15  C12 UNL     1       0.742   4.054   0.000  0.00  0.00     0.000 A
BRANCH 15 16
ATOM     16  C13 UNL     1       1.746   2.939   0.000  0.00  0.00     0.000 C
ATOM     17  O1  UNL     1       3.213   3.251   0.000  0.00  0.00     0.000 OA
ATOM     18  N4  UNL     1       1.282   1.513   0.000  0.00  0.00     0.000 N
ENDBRANCH 15 16
BRANCH 11 10
ATOM     10  N1  UNL     1      -1.500   2.598   0.000  0.00  0.00     0.000 N
BRANCH 10 7
ATOM      4  C4  UNL     1      -6.000   2.598   0.000  0.00  0.00     0.000 A
ATOM      5  C5  UNL     1      -5.250   3.897   0.000  0.00  0.00     0.000 A
ATOM      6  C6  UNL     1      -3.750   3.897   0.000  0.00  0.00     0.000 A
ATOM      7  C7  UNL     1      -3.000   2.598   0.000  0.00  0.00     0.000 A
ATOM      8  C8  UNL     1      -3.750   1.299   0.000  0.00  0.00     0.000 A
ATOM      9  C9  UNL     1      -5.250   1.299   0.000  0.00  0.00     0.000 A
BRANCH 4 3
ATOM      1  C1  UNL     1      -8.799   1.848   0.000  0.00  0.00     0.000 C
ATOM      2  C2  UNL     1      -8.799   3.348   0.000  0.00  0.00     0.000 C
ATOM      3  C3  UNL     1      -7.500   2.598   0.000  0.00  0.00     0.000 C
ENDBRANCH 4 3
ENDBRANCH 10 7
ENDBRANCH 11 10
ENDBRANCH 19 13
TORSDOF 5