REMARK  Name = 
REMARK  7 active torsions:
REMARK  status: ('A' for Active; 'I' for Inactive)
REMARK    1  A    between atoms: _2  and  _3
REMARK    2  A    between atoms: _2  and  _6
REMARK    3  A    between atoms: _3  and  _4
REMARK    4  A    between atoms: _9  and  _12
REMARK    5  A    between atoms: _12  and  _13
REMARK    6  A    between atoms: _15  and  _21
REMARK    7  A    between atoms: _17  and  _18
ROOT
ATOM     21  C15 UNL     1      -6.924   3.533   0.000  0.00  0.00     0.000 C
ATOM     22  C16 UNL     1      -7.081   5.025   0.000  0.00  0.00     0.000 C
ATOM     23  O3  UNL     1      -8.451   5.635   0.000  0.00  0.00     0.000 OA
ATOM     24  C17 UNL     1      -9.665   4.753   0.000  0.00  0.00     0.000 C
ATOM     25  C18 UNL     1      -9.508   3.262   0.000  0.00  0.00     0.000 C
ATOM     26  C19 UNL     1      -8.137   2.651   0.000  0.00  0.00     0.000 C
ATOM     27  C20 UNL     1      -7.981   1.160   0.000  0.00  0.00     0.000 C
ATOM     28  N5  UNL     1      -7.824  -0.332   0.000  0.00  0.00     0.000 N
ENDROOT
BRANCH 21 15
ATOM     13  C11 UNL     1      -3.750   1.299   0.000  0.00  0.00     0.000 A
ATOM     14  N2  UNL     1      -5.242   1.456   0.000  0.00  0.00     0.000 NA
ATOM     15  N3  UNL     1      -5.554   2.923   0.000  0.00  0.00     0.000 N
ATOM     16  C12 UNL     1      -4.255   3.673   0.000  0.00  0.00     0.000 A
ATOM     17  C13 UNL     1      -3.140   2.669   0.000  0.00  0.00     0.000 A
BRANCH 17 18
ATOM     18  C14 UNL     1      -1.673   2.981   0.000  0.00  0.00     0.000 C
ATOM     19  O2  UNL     1      -0.669   1.867   0.000  0.00  0.00     0.000 OA
ATOM     20  N4  UNL     1      -1.209   4.408   0.000  0.00  0.00     0.000 N
ENDBRANCH 17 18
BRANCH 13 12
ATOM     12  N1  UNL     1      -3.000   0.000   0.000  0.00  0.00     0.000 N
BRANCH 12 9
ATOM      6  C5  UNL     1      -5.250  -3.897   0.000  0.00  0.00     0.000 A
ATOM      7  C6  UNL     1      -3.750  -3.897   0.000  0.00  0.00     0.000 A
ATOM      8  C7  UNL     1      -3.000  -2.598   0.000  0.00  0.00     0.000 A
ATOM      9  C8  UNL     1      -3.750  -1.299   0.000  0.00  0.00     0.000 A
ATOM     10  C9  UNL     1      -5.250  -1.299   0.000  0.00  0.00     0.000 A
ATOM     11  C10 UNL     1      -6.000  -2.598   0.000  0.00  0.00     0.000 A
BRANCH 6 2
ATOM      1  C1  UNL     1      -5.250  -6.495   0.000  0.00  0.00     0.000 C
ATOM      2  C2  UNL     1      -6.000  -5.196   0.000  0.00  0.00     0.000 C
BRANCH 2 3
ATOM      3  C3  UNL     1      -7.500  -5.196   0.000  0.00  0.00     0.000 C
BRANCH 3 4
ATOM      4  O1  UNL     1      -8.250  -6.495   0.000  0.00  0.00     0.000 OA
ATOM      5  C4  UNL     1      -9.750  -6.495   0.000  0.00  0.00     0.000 C
ENDBRANCH 3 4
ENDBRANCH 2 3
ENDBRANCH 6 2
ENDBRANCH 12 9
ENDBRANCH 13 12
ENDBRANCH 21 15
TORSDOF 7