REMARK  Name = 
REMARK  6 active torsions:
REMARK  status: ('A' for Active; 'I' for Inactive)
REMARK    1  A    between atoms: _2  and  _4
REMARK    2  A    between atoms: _2  and  _27
REMARK    3  A    between atoms: _7  and  _10
REMARK    4  A    between atoms: _10  and  _11
REMARK    5  A    between atoms: _13  and  _19
REMARK    6  A    between atoms: _15  and  _16
ROOT
ATOM     19  C14 UNL     1      -6.924   3.533   0.000  0.00  0.00     0.000 C
ATOM     20  C15 UNL     1      -7.081   5.025   0.000  0.00  0.00     0.000 C
ATOM     21  O2  UNL     1      -8.451   5.635   0.000  0.00  0.00     0.000 OA
ATOM     22  C16 UNL     1      -9.665   4.753   0.000  0.00  0.00     0.000 C
ATOM     23  C17 UNL     1      -9.508   3.262   0.000  0.00  0.00     0.000 C
ATOM     24  C18 UNL     1      -8.137   2.651   0.000  0.00  0.00     0.000 C
ATOM     25  C19 UNL     1      -7.981   1.160   0.000  0.00  0.00     0.000 C
ATOM     26  N5  UNL     1      -7.824  -0.332   0.000  0.00  0.00     0.000 N
ENDROOT
BRANCH 19 13
ATOM     11  C10 UNL     1      -3.750   1.299   0.000  0.00  0.00     0.000 A
ATOM     12  N2  UNL     1      -5.242   1.456   0.000  0.00  0.00     0.000 NA
ATOM     13  N3  UNL     1      -5.554   2.923   0.000  0.00  0.00     0.000 N
ATOM     14  C11 UNL     1      -4.255   3.673   0.000  0.00  0.00     0.000 A
ATOM     15  C12 UNL     1      -3.140   2.669   0.000  0.00  0.00     0.000 A
BRANCH 15 16
ATOM     16  C13 UNL     1      -1.673   2.981   0.000  0.00  0.00     0.000 C
ATOM     17  O1  UNL     1      -0.669   1.867   0.000  0.00  0.00     0.000 OA
ATOM     18  N4  UNL     1      -1.209   4.408   0.000  0.00  0.00     0.000 N
ENDBRANCH 15 16
BRANCH 11 10
ATOM     10  N1  UNL     1      -3.000   0.000   0.000  0.00  0.00     0.000 N
BRANCH 10 7
ATOM      4  C4  UNL     1      -5.250  -3.897   0.000  0.00  0.00     0.000 A
ATOM      5  C5  UNL     1      -3.750  -3.897   0.000  0.00  0.00     0.000 A
ATOM      6  C6  UNL     1      -3.000  -2.598   0.000  0.00  0.00     0.000 A
ATOM      7  C7  UNL     1      -3.750  -1.299   0.000  0.00  0.00     0.000 A
ATOM      8  C8  UNL     1      -5.250  -1.299   0.000  0.00  0.00     0.000 A
ATOM      9  C9  UNL     1      -6.000  -2.598   0.000  0.00  0.00     0.000 A
BRANCH 4 2
ATOM      1  C1  UNL     1      -7.299  -4.446   0.000  0.00  0.00     0.000 C
ATOM      2  C2  UNL     1      -6.000  -5.196   0.000  0.00  0.00     0.000 C
ATOM      3  C3  UNL     1      -4.701  -5.946   0.000  0.00  0.00     0.000 C
BRANCH 2 27
ATOM     27  O3  UNL     1      -6.750  -6.495   0.000  0.00  0.00     0.000 OA
ATOM     28  C20 UNL     1      -8.250  -6.495   0.000  0.00  0.00     0.000 C
ENDBRANCH 2 27
ENDBRANCH 4 2
ENDBRANCH 10 7
ENDBRANCH 11 10
ENDBRANCH 19 13
TORSDOF 6