REMARK  Name = 
REMARK  5 active torsions:
REMARK  status: ('A' for Active; 'I' for Inactive)
REMARK    1  A    between atoms: _3  and  _17
REMARK    2  A    between atoms: _6  and  _7
REMARK    3  A    between atoms: _7  and  _8
REMARK    4  A    between atoms: _8  and  _9
REMARK    5  A    between atoms: _9  and  _10
ROOT
ATOM     17  C15 UNL     1      -3.639   1.597   0.000  0.00  0.00     0.000 A
ATOM     18  C16 UNL     1      -2.147   1.754   0.000  0.00  0.00     0.000 A
ATOM     19  C17 UNL     1      -1.032   0.750   0.000  0.00  0.00     0.000 A
ATOM     20  C18 UNL     1       0.394   1.214   0.000  0.00  0.00     0.000 A
ATOM     21  N2  UNL     1       1.276   0.000   0.000  0.00  0.00     0.000 N
ATOM     22  C19 UNL     1       0.394  -1.214   0.000  0.00  0.00     0.000 A
ATOM     23  C20 UNL     1      -1.032  -0.750   0.000  0.00  0.00     0.000 A
ATOM     24  N3  UNL     1       0.706   2.681   0.000  0.00  0.00     0.000 NA
ATOM     25  C21 UNL     1      -0.409   3.684   0.000  0.00  0.00     0.000 A
ATOM     26  N4  UNL     1      -1.835   3.221   0.000  0.00  0.00     0.000 N
ATOM     27  N5  UNL     1      -3.134   3.971   0.000  0.00  0.00     0.000 NA
ATOM     28  N6  UNL     1      -4.249   2.967   0.000  0.00  0.00     0.000 NA
ENDROOT
BRANCH 17 3
ATOM      1  C1  UNL     1      -6.639  -1.001   0.000  0.00  0.00     0.000 C
ATOM      2  C2  UNL     1      -5.889   0.298   0.000  0.00  0.00     0.000 C
ATOM      3  C3  UNL     1      -4.389   0.298   0.000  0.00  0.00     0.000 C
ATOM      4  C4  UNL     1      -3.639  -1.001   0.000  0.00  0.00     0.000 C
ATOM      5  C5  UNL     1      -4.389  -2.300   0.000  0.00  0.00     0.000 C
ATOM      6  C6  UNL     1      -5.889  -2.300   0.000  0.00  0.00     0.000 C
BRANCH 6 7
ATOM      7  C7  UNL     1      -6.639  -3.599   0.000  0.00  0.00     0.000 C
BRANCH 7 8
ATOM      8  N1  UNL     1      -8.139  -3.599   0.000  0.00  0.00     0.000 N
BRANCH 8 9
ATOM      9  C8  UNL     1      -8.889  -4.898   0.000  0.00  0.00     0.000 C
BRANCH 9 10
ATOM     10  C9  UNL     1     -10.389  -4.898   0.000  0.00  0.00     0.000 A
ATOM     11  C10 UNL     1     -11.139  -3.599   0.000  0.00  0.00     0.000 A
ATOM     12  C11 UNL     1     -12.639  -3.599   0.000  0.00  0.00     0.000 A
ATOM     13  C12 UNL     1     -13.389  -4.898   0.000  0.00  0.00     0.000 A
ATOM     14  C13 UNL     1     -12.639  -6.197   0.000  0.00  0.00     0.000 A
ATOM     15  C14 UNL     1     -11.139  -6.197   0.000  0.00  0.00     0.000 A
ATOM     16  F1  UNL     1     -14.889  -4.898   0.000  0.00  0.00     0.000 F
ENDBRANCH 9 10
ENDBRANCH 8 9
ENDBRANCH 7 8
ENDBRANCH 6 7
ENDBRANCH 17 3
TORSDOF 5