REMARK  Name = 
REMARK  4 active torsions:
REMARK  status: ('A' for Active; 'I' for Inactive)
REMARK    1  A    between atoms: _2  and  _3
REMARK    2  A    between atoms: _9  and  _13
REMARK    3  A    between atoms: _13  and  _14
REMARK    4  A    between atoms: _22  and  _23
ROOT
ATOM      3  C2  UNL     1       0.750  -1.299   0.000  0.00  0.00     0.000 C
ATOM      4  C3  UNL     1       1.500   0.000   0.000  0.00  0.00     0.000 C
ATOM      5  C4  UNL     1       0.750   1.299   0.000  0.00  0.00     0.000 C
ATOM      6  C5  UNL     1      -0.750   1.299   0.000  0.00  0.00     0.000 C
ATOM      7  C6  UNL     1      -1.500   0.000   0.000  0.00  0.00     0.000 C
ATOM      8  C7  UNL     1      -0.750  -1.299   0.000  0.00  0.00     0.000 C
ATOM      9  C8  UNL     1       1.701  -0.750   0.000  0.00  0.00     0.000 C
ATOM     10  C9  UNL     1       3.000  -0.000   0.000  0.00  0.00     0.000 C
ATOM     11  C10 UNL     1       2.250   1.299   0.000  0.00  0.00     0.000 C
ATOM     12  C11 UNL     1       2.250  -1.299   0.000  0.00  0.00     0.000 C
ENDROOT
BRANCH 3 2
ATOM      1  C1  UNL     1       0.750  -3.897   0.000  0.00  0.00     0.000 C
ATOM      2  O1  UNL     1       1.500  -2.598   0.000  0.00  0.00     0.000 OA
ENDBRANCH 3 2
BRANCH 9 13
ATOM     13  N1  UNL     1       1.701  -2.250   0.000  0.00  0.00     0.000 N
BRANCH 13 14
ATOM     14  C12 UNL     1       3.000  -3.000   0.000  0.00  0.00     0.000 A
ATOM     15  C13 UNL     1       3.000  -4.500   0.000  0.00  0.00     0.000 A
ATOM     16  C14 UNL     1       1.885  -5.504   0.000  0.00  0.00     0.000 A
ATOM     17  C15 UNL     1       2.495  -6.874   0.000  0.00  0.00     0.000 A
ATOM     18  N2  UNL     1       3.987  -6.717   0.000  0.00  0.00     0.000 N
ATOM     19  C16 UNL     1       4.299  -5.250   0.000  0.00  0.00     0.000 A
ATOM     20  N3  UNL     1       5.598  -4.500   0.000  0.00  0.00     0.000 NA
ATOM     21  C17 UNL     1       5.598  -3.000   0.000  0.00  0.00     0.000 A
ATOM     22  C18 UNL     1       4.299  -2.250   0.000  0.00  0.00     0.000 A
BRANCH 22 23
ATOM     23  C19 UNL     1       4.299  -0.750   0.000  0.00  0.00     0.000 C
ATOM     24  O2  UNL     1       3.220   0.292   0.000  0.00  0.00     0.000 OA
ATOM     25  N4  UNL     1       5.598  -0.000   0.000  0.00  0.00     0.000 N
ENDBRANCH 22 23
ENDBRANCH 13 14
ENDBRANCH 9 13
TORSDOF 4