REMARK  Name = 
REMARK  6 active torsions:
REMARK  status: ('A' for Active; 'I' for Inactive)
REMARK    1  A    between atoms: _3  and  _27
REMARK    2  A    between atoms: _7  and  _10
REMARK    3  A    between atoms: _10  and  _11
REMARK    4  A    between atoms: _15  and  _17
REMARK    5  A    between atoms: _19  and  _22
REMARK    6  A    between atoms: _22  and  _23
ROOT
ATOM      1  C1  UNL     1       1.214  -2.726   0.000  0.00  0.00     0.000 C
ATOM      2  C2  UNL     1       0.000  -3.607   0.000  0.00  0.00     0.000 C
ATOM      3  N1  UNL     1      -1.214  -2.726   0.000  0.00  0.00     0.000 N
ATOM      4  C3  UNL     1      -0.750  -1.299   0.000  0.00  0.00     0.000 A
ATOM      5  C4  UNL     1       0.750  -1.299   0.000  0.00  0.00     0.000 A
ATOM      6  C5  UNL     1       1.500   0.000   0.000  0.00  0.00     0.000 A
ATOM      7  C6  UNL     1       0.750   1.299   0.000  0.00  0.00     0.000 A
ATOM      8  C7  UNL     1      -0.750   1.299   0.000  0.00  0.00     0.000 A
ATOM      9  C8  UNL     1      -1.500   0.000   0.000  0.00  0.00     0.000 A
ENDROOT
BRANCH 3 27
ATOM     27  S1  UNL     1      -2.640  -3.189   0.000  0.00  0.00     0.000 S
ATOM     28  O1  UNL     1      -3.104  -1.763   0.000  0.00  0.00     0.000 OA
ATOM     29  O2  UNL     1      -2.177  -4.616   0.000  0.00  0.00     0.000 OA
ATOM     30  C19 UNL     1      -4.067  -3.653   0.000  0.00  0.00     0.000 C
ATOM     31  F2  UNL     1      -4.530  -2.226   0.000  0.00  0.00     0.000 F
ATOM     32  F3  UNL     1      -3.603  -5.079   0.000  0.00  0.00     0.000 F
ATOM     33  F4  UNL     1      -5.493  -4.116   0.000  0.00  0.00     0.000 F
ENDBRANCH 3 27
BRANCH 7 10
ATOM     10  N2  UNL     1       1.500   2.598   0.000  0.00  0.00     0.000 N
BRANCH 10 11
ATOM     11  C9  UNL     1       3.000   2.598   0.000  0.00  0.00     0.000 A
ATOM     12  N3  UNL     1       3.750   1.299   0.000  0.00  0.00     0.000 NA
ATOM     13  C10 UNL     1       5.250   1.299   0.000  0.00  0.00     0.000 A
ATOM     14  C11 UNL     1       6.000   2.598   0.000  0.00  0.00     0.000 A
ATOM     15  C12 UNL     1       5.250   3.897   0.000  0.00  0.00     0.000 A
ATOM     16  N4  UNL     1       3.750   3.897   0.000  0.00  0.00     0.000 NA
ATOM     26  F1  UNL     1       7.500   2.598   0.000  0.00  0.00     0.000 F
BRANCH 15 17
ATOM     17  C13 UNL     1       6.000   5.196   0.000  0.00  0.00     0.000 A
ATOM     18  C14 UNL     1       5.390   6.566   0.000  0.00  0.00     0.000 A
ATOM     19  N5  UNL     1       6.505   7.570   0.000  0.00  0.00     0.000 N
ATOM     20  N6  UNL     1       7.804   6.820   0.000  0.00  0.00     0.000 NA
ATOM     21  C15 UNL     1       7.492   5.353   0.000  0.00  0.00     0.000 A
BRANCH 19 22
ATOM     22  C16 UNL     1       6.348   9.062   0.000  0.00  0.00     0.000 C
BRANCH 22 23
ATOM     23  C17 UNL     1       7.561   9.944   0.000  0.00  0.00     0.000 C
ATOM     24  C18 UNL     1       7.405  11.435   0.000  0.00  0.00     0.000 C
ATOM     25  N7  UNL     1       7.248  12.927   0.000  0.00  0.00     0.000 N
ENDBRANCH 22 23
ENDBRANCH 19 22
ENDBRANCH 15 17
ENDBRANCH 10 11
ENDBRANCH 7 10
TORSDOF 6