REMARK  Name = 
REMARK  4 active torsions:
REMARK  status: ('A' for Active; 'I' for Inactive)
REMARK    1  A    between atoms: _3  and  _4
REMARK    2  A    between atoms: _7  and  _6
REMARK    3  A    between atoms: _11  and  _13
REMARK    4  A    between atoms: _16  and  _14
ROOT
ATOM     16  C11 UNL     1      -5.250   1.299   0.000  0.00  0.00     0.000 A
ATOM     17  C12 UNL     1      -6.000   2.598   0.000  0.00  0.00     0.000 A
ATOM     18  C13 UNL     1      -7.500   2.598   0.000  0.00  0.00     0.000 A
ATOM     19  C14 UNL     1      -8.250   1.299   0.000  0.00  0.00     0.000 A
ATOM     20  C15 UNL     1      -7.500   0.000   0.000  0.00  0.00     0.000 A
ATOM     21  C16 UNL     1      -6.000   0.000   0.000  0.00  0.00     0.000 A
ATOM     22 CL1  UNL     1      -5.250  -1.299   0.000  0.00  0.00     0.000 Cl
ATOM     23 CL2  UNL     1      -5.250   3.897   0.000  0.00  0.00     0.000 Cl
ENDROOT
BRANCH 16 14
ATOM     13  N3  UNL     1      -3.000   0.000   0.000  0.00  0.00     0.000 N
ATOM     14  C10 UNL     1      -3.750   1.299   0.000  0.00  0.00     0.000 C
ATOM     15  O2  UNL     1      -3.000   2.598   0.000  0.00  0.00     0.000 OA
BRANCH 13 11
ATOM      7  C5  UNL     1       0.750  -1.299   0.000  0.00  0.00     0.000 A
ATOM      8  N2  UNL     1       1.500   0.000   0.000  0.00  0.00     0.000 NA
ATOM      9  C6  UNL     1       0.750   1.299   0.000  0.00  0.00     0.000 A
ATOM     10  C7  UNL     1      -0.750   1.299   0.000  0.00  0.00     0.000 A
ATOM     11  C8  UNL     1      -1.500   0.000   0.000  0.00  0.00     0.000 A
ATOM     12  C9  UNL     1      -0.750  -1.299   0.000  0.00  0.00     0.000 A
BRANCH 7 6
ATOM      4  C4  UNL     1       0.750  -3.897   0.000  0.00  0.00     0.000 C
ATOM      5  O1  UNL     1      -0.750  -3.897   0.000  0.00  0.00     0.000 OA
ATOM      6  N1  UNL     1       1.500  -2.598   0.000  0.00  0.00     0.000 N
BRANCH 4 3
ATOM      1  C1  UNL     1       1.500  -6.696   0.000  0.00  0.00     0.000 C
ATOM      2  C2  UNL     1       2.799  -5.946   0.000  0.00  0.00     0.000 C
ATOM      3  C3  UNL     1       1.500  -5.196   0.000  0.00  0.00     0.000 C
ENDBRANCH 4 3
ENDBRANCH 7 6
ENDBRANCH 13 11
ENDBRANCH 16 14
TORSDOF 4