REMARK  Name = 
REMARK  4 active torsions:
REMARK  status: ('A' for Active; 'I' for Inactive)
REMARK    1  A    between atoms: _3  and  _4
REMARK    2  A    between atoms: _4  and  _5
REMARK    3  A    between atoms: _4  and  _10
REMARK    4  A    between atoms: _12  and  _13
ROOT
ATOM     13  C11 UNL     1      -2.147   1.754   0.000  0.00  0.00     0.000 A
ATOM     14  N3  UNL     1      -1.835   3.221   0.000  0.00  0.00     0.000 NA
ATOM     15  C12 UNL     1      -0.409   3.684   0.000  0.00  0.00     0.000 A
ATOM     16  N4  UNL     1       0.706   2.681   0.000  0.00  0.00     0.000 NA
ATOM     17  C13 UNL     1       0.394   1.214   0.000  0.00  0.00     0.000 A
ATOM     18  N5  UNL     1       1.276   0.000   0.000  0.00  0.00     0.000 N
ATOM     19  C14 UNL     1       0.394  -1.214   0.000  0.00  0.00     0.000 A
ATOM     20  C15 UNL     1      -1.032  -0.750   0.000  0.00  0.00     0.000 A
ATOM     21  C16 UNL     1      -1.032   0.750   0.000  0.00  0.00     0.000 A
ENDROOT
BRANCH 13 12
ATOM     10  N2  UNL     1      -6.001   1.290   0.000  0.00  0.00     0.000 N
ATOM     11  C9  UNL     1      -4.787   2.172   0.000  0.00  0.00     0.000 A
ATOM     12  C10 UNL     1      -3.574   1.290   0.000  0.00  0.00     0.000 A
ATOM     22  C17 UNL     1      -4.037  -0.136   0.000  0.00  0.00     0.000 A
ATOM     23  N6  UNL     1      -5.537  -0.136   0.000  0.00  0.00     0.000 NA
BRANCH 10 4
ATOM      4  C3  UNL     1      -7.427   1.754   0.000  0.00  0.00     0.000 C
BRANCH 4 5
ATOM      5  C4  UNL     1      -8.542   0.750   0.000  0.00  0.00     0.000 C
ATOM      6  C5  UNL     1      -8.385  -0.742   0.000  0.00  0.00     0.000 C
ATOM      7  C6  UNL     1      -9.755  -1.352   0.000  0.00  0.00     0.000 C
ATOM      8  C7  UNL     1     -10.759  -0.237   0.000  0.00  0.00     0.000 C
ATOM      9  C8  UNL     1     -10.009   1.062   0.000  0.00  0.00     0.000 C
ENDBRANCH 4 5
BRANCH 4 3
ATOM      1  N1  UNL     1     -10.592   4.148   0.000  0.00  0.00     0.000 N
ATOM      2  C1  UNL     1      -9.166   3.684   0.000  0.00  0.00     0.000 C
ATOM      3  C2  UNL     1      -7.739   3.221   0.000  0.00  0.00     0.000 C
ENDBRANCH 4 3
ENDBRANCH 10 4
ENDBRANCH 13 12
TORSDOF 4