REMARK  Name = 
REMARK  2 active torsions:
REMARK  status: ('A' for Active; 'I' for Inactive)
REMARK    1  A    between atoms: _2  and  _3
REMARK    2  A    between atoms: _9  and  _10
ROOT
ATOM      3  C2  UNL     1       4.849  -4.523   0.000  0.00  0.00     0.000 C
ATOM      4  C3  UNL     1       4.041  -5.787   0.000  0.00  0.00     0.000 C
ATOM      5  C4  UNL     1       2.538  -5.825   0.000  0.00  0.00     0.000 C
ATOM      6  O1  UNL     1       3.249  -4.504   0.000  0.00  0.00     0.000 OA
ATOM      7  C5  UNL     1       2.659  -3.125   0.000  0.00  0.00     0.000 C
ATOM      8  C6  UNL     1       3.646  -1.995   0.000  0.00  0.00     0.000 C
ATOM      9  C7  UNL     1       4.158  -3.192   0.000  0.00  0.00     0.000 C
ATOM     12  N2  UNL     1       1.214  -2.726   0.000  0.00  0.00     0.000 N
ATOM     13  C9  UNL     1       0.750  -1.299   0.000  0.00  0.00     0.000 A
ATOM     14  C10 UNL     1       1.500   0.000   0.000  0.00  0.00     0.000 A
ATOM     15  C11 UNL     1       0.750   1.299   0.000  0.00  0.00     0.000 A
ATOM     16  C12 UNL     1      -0.750   1.299   0.000  0.00  0.00     0.000 A
ATOM     17  C13 UNL     1      -1.500   0.000   0.000  0.00  0.00     0.000 A
ATOM     18  C14 UNL     1      -0.750  -1.299   0.000  0.00  0.00     0.000 A
ATOM     19  C15 UNL     1      -1.214  -2.726   0.000  0.00  0.00     0.000 A
ATOM     20  C16 UNL     1      -2.552  -3.569   0.000  0.00  0.00     0.000 A
ATOM     21  C17 UNL     1      -2.619  -5.068   0.000  0.00  0.00     0.000 A
ATOM     22  C18 UNL     1      -1.355  -5.875   0.000  0.00  0.00     0.000 A
ATOM     23  C19 UNL     1      -1.021  -7.338   0.000  0.00  0.00     0.000 A
ATOM     24  C20 UNL     1      -1.885  -8.564   0.000  0.00  0.00     0.000 A
ATOM     25  C21 UNL     1      -1.254  -9.925   0.000  0.00  0.00     0.000 A
ATOM     26  C22 UNL     1       0.240 -10.060   0.000  0.00  0.00     0.000 A
ATOM     27  C23 UNL     1       1.103  -8.833   0.000  0.00  0.00     0.000 A
ATOM     28  C24 UNL     1       0.473  -7.472   0.000  0.00  0.00     0.000 A
ATOM     29  N3  UNL     1       1.062  -6.093   0.000  0.00  0.00     0.000 N
ATOM     30  C25 UNL     1      -0.067  -5.106   0.000  0.00  0.00     0.000 A
ATOM     31  C26 UNL     1      -0.000  -3.607   0.000  0.00  0.00     0.000 A
ATOM     32  C27 UNL     1      -4.065  -5.467   0.000  0.00  0.00     0.000 C
ATOM     33  O3  UNL     1      -4.592  -6.871   0.000  0.00  0.00     0.000 OA
ATOM     34  N4  UNL     1      -4.891  -4.215   0.000  0.00  0.00     0.000 N
ATOM     35  C28 UNL     1      -3.956  -3.042   0.000  0.00  0.00     0.000 C
ENDROOT
BRANCH 3 2
ATOM      1  C1  UNL     1       7.038  -5.922   0.000  0.00  0.00     0.000 C
ATOM      2  N1  UNL     1       6.347  -4.591   0.000  0.00  0.00     0.000 N
ENDBRANCH 3 2
BRANCH 9 10
ATOM     10  O2  UNL     1       4.965  -1.928   0.000  0.00  0.00     0.000 OA
ATOM     11  C8  UNL     1       6.464  -1.995   0.000  0.00  0.00     0.000 C
ENDBRANCH 9 10
TORSDOF 2