REMARK  Name = 
REMARK  3 active torsions:
REMARK  status: ('A' for Active; 'I' for Inactive)
REMARK    1  A    between atoms: _7  and  _8
REMARK    2  A    between atoms: _8  and  _10
REMARK    3  A    between atoms: _21  and  _19
ROOT
ATOM      1  C1  UNL     1       4.986   4.071   0.000  0.00  0.00     0.000 C
ATOM      2  C2  UNL     1       4.674   2.604   0.000  0.00  0.00     0.000 C
ATOM      3  C3  UNL     1       5.789   1.600   0.000  0.00  0.00     0.000 C
ATOM      4  C4  UNL     1       5.477   0.133   0.000  0.00  0.00     0.000 C
ATOM      5  N1  UNL     1       4.050  -0.330   0.000  0.00  0.00     0.000 N
ATOM      6  C5  UNL     1       2.936   0.673   0.000  0.00  0.00     0.000 C
ATOM      7  C6  UNL     1       3.248   2.141   0.000  0.00  0.00     0.000 C
ATOM     19  C14 UNL     1       3.739  -1.798   0.000  0.00  0.00     0.000 C
ATOM     20  O1  UNL     1       2.312  -2.261   0.000  0.00  0.00     0.000 OA
ENDROOT
BRANCH 19 21
ATOM     21  C15 UNL     1       4.853  -2.801   0.000  0.00  0.00     0.000 C
ATOM     22  C16 UNL     1       4.541  -4.269   0.000  0.00  0.00     0.000 C
ATOM     23  N6  UNL     1       4.229  -5.736   0.000  0.00  0.00     0.000 N
ENDBRANCH 19 21
BRANCH 7 8
ATOM      8  N2  UNL     1       2.133   3.144   0.000  0.00  0.00     0.000 N
ATOM      9  C7  UNL     1       2.445   4.612   0.000  0.00  0.00     0.000 C
BRANCH 8 10
ATOM     10  C8  UNL     1       0.706   2.681   0.000  0.00  0.00     0.000 A
ATOM     11  N3  UNL     1      -0.409   3.684   0.000  0.00  0.00     0.000 NA
ATOM     12  C9  UNL     1      -1.835   3.221   0.000  0.00  0.00     0.000 A
ATOM     13  N4  UNL     1      -2.147   1.754   0.000  0.00  0.00     0.000 NA
ATOM     14  C10 UNL     1      -1.032   0.750   0.000  0.00  0.00     0.000 A
ATOM     15  C11 UNL     1       0.394   1.214   0.000  0.00  0.00     0.000 A
ATOM     16  C12 UNL     1       1.276   0.000   0.000  0.00  0.00     0.000 A
ATOM     17  C13 UNL     1       0.394  -1.214   0.000  0.00  0.00     0.000 A
ATOM     18  N5  UNL     1      -1.032  -0.750   0.000  0.00  0.00     0.000 N
ENDBRANCH 8 10
ENDBRANCH 7 8
TORSDOF 3